DB00836
 OpenBabel07062211533D

 67 70  0  0  0  0  0  0  0  0999 V2000
   -9.5864   -1.7344    0.6350 Cl  0  0  0  0  0  0  0  0  0  0  0  0
   -4.0568    1.8035    0.8749 O   0  0  0  0  0  0  0  0  0  0  0  0
    4.2012    0.6494   -1.9546 O   0  0  0  0  0  0  0  0  0  0  0  0
   -1.1508    0.1976   -0.5478 N   0  0  0  0  0  0  0  0  0  0  0  0
    2.7382   -1.0184   -2.5049 N   0  0  0  0  0  0  0  0  0  0  0  0
   -3.9804    0.4865    0.3091 C   0  0  0  0  0  0  0  0  0  0  0  0
   -3.5229    0.5858   -1.1646 C   0  0  0  0  0  0  0  0  0  0  0  0
   -2.9178   -0.3067    1.1021 C   0  0  0  0  0  0  0  0  0  0  0  0
   -2.0671    1.0450   -1.3174 C   0  0  0  0  0  0  0  0  0  0  0  0
   -1.4918    0.2104    0.8790 C   0  0  0  0  0  0  0  0  0  0  0  0
    0.2337    0.6249   -0.7480 C   0  0  0  0  0  0  0  0  0  0  0  0
    1.1898   -0.3363   -0.0237 C   0  0  0  0  0  0  0  0  0  0  0  0
    2.7261   -0.0028   -0.1141 C   0  0  0  0  0  0  0  0  0  0  0  0
   -5.4006   -0.0753    0.3929 C   0  0  0  0  0  0  0  0  0  0  0  0
    2.8485    1.4612    0.4535 C   0  0  0  0  0  0  0  0  0  0  0  0
    3.6179   -0.9600    0.7348 C   0  0  0  0  0  0  0  0  0  0  0  0
    3.2690   -0.0895   -1.6036 C   0  0  0  0  0  0  0  0  0  0  0  0
   -6.4408    0.5589   -0.2847 C   0  0  0  0  0  0  0  0  0  0  0  0
   -5.6523   -1.2213    1.1457 C   0  0  0  0  0  0  0  0  0  0  0  0
    3.0930    1.5871    1.7805 C   0  0  0  0  0  0  0  0  0  0  0  0
    4.9542   -0.6999    0.7811 C   0  0  0  0  0  0  0  0  0  0  0  0
    2.6989    2.4772   -0.4307 C   0  0  0  0  0  0  0  0  0  0  0  0
    3.0016   -1.9934    1.3733 C   0  0  0  0  0  0  0  0  0  0  0  0
   -7.7357    0.0460   -0.2095 C   0  0  0  0  0  0  0  0  0  0  0  0
   -6.9473   -1.7343    1.2207 C   0  0  0  0  0  0  0  0  0  0  0  0
   -7.9890   -1.1006    0.5433 C   0  0  0  0  0  0  0  0  0  0  0  0
    3.2008    2.8837    2.2834 C   0  0  0  0  0  0  0  0  0  0  0  0
    5.7519   -1.5563    1.5399 C   0  0  0  0  0  0  0  0  0  0  0  0
    2.8070    3.7738    0.0720 C   0  0  0  0  0  0  0  0  0  0  0  0
    3.7992   -2.8497    2.1324 C   0  0  0  0  0  0  0  0  0  0  0  0
    2.2125   -2.3425   -2.1965 C   0  0  0  0  0  0  0  0  0  0  0  0
    2.7716   -0.7053   -3.9303 C   0  0  0  0  0  0  0  0  0  0  0  0
    3.0579    3.9771    1.4291 C   0  0  0  0  0  0  0  0  0  0  0  0
    5.1743   -2.6312    2.2155 C   0  0  0  0  0  0  0  0  0  0  0  0
   -3.6387   -0.3913   -1.6535 H   0  0  0  0  0  0  0  0  0  0  0  0
   -4.1451    1.2983   -1.7198 H   0  0  0  0  0  0  0  0  0  0  0  0
   -3.1294   -0.2537    2.1781 H   0  0  0  0  0  0  0  0  0  0  0  0
   -2.9329   -1.3647    0.8077 H   0  0  0  0  0  0  0  0  0  0  0  0
   -1.8104    0.9913   -2.3829 H   0  0  0  0  0  0  0  0  0  0  0  0
   -1.9734    2.0980   -1.0223 H   0  0  0  0  0  0  0  0  0  0  0  0
   -1.3702    1.2099    1.3147 H   0  0  0  0  0  0  0  0  0  0  0  0
   -0.8745   -0.4773    1.4615 H   0  0  0  0  0  0  0  0  0  0  0  0
    0.4689    0.6227   -1.8183 H   0  0  0  0  0  0  0  0  0  0  0  0
    0.3292    1.6502   -0.3821 H   0  0  0  0  0  0  0  0  0  0  0  0
    0.9521   -1.3538   -0.3366 H   0  0  0  0  0  0  0  0  0  0  0  0
    0.9684   -0.2910    1.0479 H   0  0  0  0  0  0  0  0  0  0  0  0
   -3.2020    2.2488    0.7616 H   0  0  0  0  0  0  0  0  0  0  0  0
   -6.2694    1.4599   -0.8666 H   0  0  0  0  0  0  0  0  0  0  0  0
   -4.8823   -1.7476    1.6982 H   0  0  0  0  0  0  0  0  0  0  0  0
    3.1651    0.7684    2.4853 H   0  0  0  0  0  0  0  0  0  0  0  0
    5.4219    0.1329    0.2684 H   0  0  0  0  0  0  0  0  0  0  0  0
    2.4725    2.3536   -1.4827 H   0  0  0  0  0  0  0  0  0  0  0  0
    1.9442   -2.2158    1.3459 H   0  0  0  0  0  0  0  0  0  0  0  0
   -8.5382    0.5515   -0.7406 H   0  0  0  0  0  0  0  0  0  0  0  0
   -7.1310   -2.6277    1.8123 H   0  0  0  0  0  0  0  0  0  0  0  0
    3.3852    3.0427    3.3418 H   0  0  0  0  0  0  0  0  0  0  0  0
    6.8225   -1.3854    1.6061 H   0  0  0  0  0  0  0  0  0  0  0  0
    2.6876    4.6255   -0.5912 H   0  0  0  0  0  0  0  0  0  0  0  0
    3.3505   -3.6874    2.6584 H   0  0  0  0  0  0  0  0  0  0  0  0
    2.4568   -2.6478   -1.1823 H   0  0  0  0  0  0  0  0  0  0  0  0
    2.6689   -3.0695   -2.8763 H   0  0  0  0  0  0  0  0  0  0  0  0
    1.1305   -2.3426   -2.3537 H   0  0  0  0  0  0  0  0  0  0  0  0
    1.7810   -0.8855   -4.3582 H   0  0  0  0  0  0  0  0  0  0  0  0
    3.0437    0.3402   -4.1007 H   0  0  0  0  0  0  0  0  0  0  0  0
    3.5084   -1.3516   -4.4160 H   0  0  0  0  0  0  0  0  0  0  0  0
    3.1375    4.9867    1.8214 H   0  0  0  0  0  0  0  0  0  0  0  0
    5.7953   -3.2979    2.8066 H   0  0  0  0  0  0  0  0  0  0  0  0
  1 26  1  0  0  0  0
  2  6  1  0  0  0  0
  2 47  1  0  0  0  0
  3 17  2  0  0  0  0
  4  9  1  0  0  0  0
  4 10  1  0  0  0  0
  4 11  1  0  0  0  0
  5 17  1  0  0  0  0
  5 31  1  0  0  0  0
  5 32  1  0  0  0  0
  6  7  1  0  0  0  0
  6  8  1  0  0  0  0
  6 14  1  0  0  0  0
  7  9  1  0  0  0  0
  7 35  1  0  0  0  0
  7 36  1  0  0  0  0
  8 10  1  0  0  0  0
  8 37  1  0  0  0  0
  8 38  1  0  0  0  0
  9 39  1  0  0  0  0
  9 40  1  0  0  0  0
 10 41  1  0  0  0  0
 10 42  1  0  0  0  0
 11 12  1  0  0  0  0
 11 43  1  0  0  0  0
 11 44  1  0  0  0  0
 12 13  1  0  0  0  0
 12 45  1  0  0  0  0
 12 46  1  0  0  0  0
 13 15  1  0  0  0  0
 13 16  1  0  0  0  0
 13 17  1  0  0  0  0
 14 18  2  0  0  0  0
 14 19  1  0  0  0  0
 15 20  2  0  0  0  0
 15 22  1  0  0  0  0
 16 21  2  0  0  0  0
 16 23  1  0  0  0  0
 18 24  1  0  0  0  0
 18 48  1  0  0  0  0
 19 25  2  0  0  0  0
 19 49  1  0  0  0  0
 20 27  1  0  0  0  0
 20 50  1  0  0  0  0
 21 28  1  0  0  0  0
 21 51  1  0  0  0  0
 22 29  2  0  0  0  0
 22 52  1  0  0  0  0
 23 30  2  0  0  0  0
 23 53  1  0  0  0  0
 24 26  2  0  0  0  0
 24 54  1  0  0  0  0
 25 26  1  0  0  0  0
 25 55  1  0  0  0  0
 27 33  2  0  0  0  0
 27 56  1  0  0  0  0
 28 34  2  0  0  0  0
 28 57  1  0  0  0  0
 29 33  1  0  0  0  0
 29 58  1  0  0  0  0
 30 34  1  0  0  0  0
 30 59  1  0  0  0  0
 31 60  1  0  0  0  0
 31 61  1  0  0  0  0
 31 62  1  0  0  0  0
 32 63  1  0  0  0  0
 32 64  1  0  0  0  0
 32 65  1  0  0  0  0
 33 66  1  0  0  0  0
 34 67  1  0  0  0  0
M  END
