DB00801
 OpenBabel07062211533D

 36 38  0  0  0  0  0  0  0  0999 V2000
    0.2756    4.5667   -1.3476 Cl  0  0  0  0  0  0  0  0  0  0  0  0
   -3.9134   -0.9094    2.9656 F   0  0  0  0  0  0  0  0  0  0  0  0
   -2.0929   -1.9680    2.4000 F   0  0  0  0  0  0  0  0  0  0  0  0
   -2.1140    0.2167    2.4675 F   0  0  0  0  0  0  0  0  0  0  0  0
   -2.2326   -3.0903   -0.5792 O   0  0  0  0  0  0  0  0  0  0  0  0
   -2.1402   -0.7912   -0.2107 N   0  0  0  0  0  0  0  0  0  0  0  0
    0.5367   -1.6831   -1.3335 N   0  0  0  0  0  0  0  0  0  0  0  0
   -1.5120    0.4799   -0.4489 C   0  0  0  0  0  0  0  0  0  0  0  0
   -0.1489    0.6148   -0.7851 C   0  0  0  0  0  0  0  0  0  0  0  0
   -3.2823   -0.8334    0.7024 C   0  0  0  0  0  0  0  0  0  0  0  0
    0.7957   -0.5418   -0.7904 C   0  0  0  0  0  0  0  0  0  0  0  0
   -1.7634   -1.9805   -0.8453 C   0  0  0  0  0  0  0  0  0  0  0  0
   -0.7571   -1.8516   -1.9610 C   0  0  0  0  0  0  0  0  0  0  0  0
   -2.2743    1.6593   -0.3332 C   0  0  0  0  0  0  0  0  0  0  0  0
    0.3937    1.8813   -1.0693 C   0  0  0  0  0  0  0  0  0  0  0  0
    2.1188   -0.3953   -0.1177 C   0  0  0  0  0  0  0  0  0  0  0  0
   -2.8411   -0.8737    2.1438 C   0  0  0  0  0  0  0  0  0  0  0  0
   -1.7230    2.9156   -0.5977 C   0  0  0  0  0  0  0  0  0  0  0  0
   -0.3927    3.0254   -0.9777 C   0  0  0  0  0  0  0  0  0  0  0  0
    2.2452    0.4550    0.9740 C   0  0  0  0  0  0  0  0  0  0  0  0
    3.2114   -1.1127   -0.5897 C   0  0  0  0  0  0  0  0  0  0  0  0
    3.4826    0.5899    1.6034 C   0  0  0  0  0  0  0  0  0  0  0  0
    4.4488   -0.9778    0.0398 C   0  0  0  0  0  0  0  0  0  0  0  0
    4.5845   -0.1265    1.1363 C   0  0  0  0  0  0  0  0  0  0  0  0
   -4.0023   -0.0347    0.5228 H   0  0  0  0  0  0  0  0  0  0  0  0
   -3.8542   -1.7493    0.5087 H   0  0  0  0  0  0  0  0  0  0  0  0
   -0.7558   -2.7826   -2.5386 H   0  0  0  0  0  0  0  0  0  0  0  0
   -1.0191   -1.0533   -2.6640 H   0  0  0  0  0  0  0  0  0  0  0  0
   -3.3300    1.6590   -0.0881 H   0  0  0  0  0  0  0  0  0  0  0  0
    1.4350    1.9788   -1.3708 H   0  0  0  0  0  0  0  0  0  0  0  0
   -2.3545    3.7972   -0.5198 H   0  0  0  0  0  0  0  0  0  0  0  0
    1.4020    1.0012    1.3866 H   0  0  0  0  0  0  0  0  0  0  0  0
    3.1324   -1.7750   -1.4473 H   0  0  0  0  0  0  0  0  0  0  0  0
    3.5867    1.2467    2.4621 H   0  0  0  0  0  0  0  0  0  0  0  0
    5.3073   -1.5343   -0.3247 H   0  0  0  0  0  0  0  0  0  0  0  0
    5.5476   -0.0227    1.6274 H   0  0  0  0  0  0  0  0  0  0  0  0
  1 19  1  0  0  0  0
  2 17  1  0  0  0  0
  3 17  1  0  0  0  0
  4 17  1  0  0  0  0
  5 12  2  0  0  0  0
  6  8  1  0  0  0  0
  6 10  1  0  0  0  0
  6 12  1  0  0  0  0
  7 11  2  0  0  0  0
  7 13  1  0  0  0  0
  8  9  2  0  0  0  0
  8 14  1  0  0  0  0
  9 11  1  0  0  0  0
  9 15  1  0  0  0  0
 10 17  1  0  0  0  0
 10 25  1  0  0  0  0
 10 26  1  0  0  0  0
 11 16  1  0  0  0  0
 12 13  1  0  0  0  0
 13 27  1  0  0  0  0
 13 28  1  0  0  0  0
 14 18  2  0  0  0  0
 14 29  1  0  0  0  0
 15 19  2  0  0  0  0
 15 30  1  0  0  0  0
 16 20  2  0  0  0  0
 16 21  1  0  0  0  0
 18 19  1  0  0  0  0
 18 31  1  0  0  0  0
 20 22  1  0  0  0  0
 20 32  1  0  0  0  0
 21 23  2  0  0  0  0
 21 33  1  0  0  0  0
 22 24  2  0  0  0  0
 22 34  1  0  0  0  0
 23 24  1  0  0  0  0
 23 35  1  0  0  0  0
 24 36  1  0  0  0  0
M  END
