DB00882
 OpenBabel07062211533D

 57 59  0  0  0  0  0  0  0  0999 V2000
   -2.2390    2.6584    0.8004 Cl  0  0  0  0  0  0  0  0  0  0  0  0
    2.6407   -0.5160   -1.3686 O   0  0  0  0  0  0  0  0  0  0  0  0
    5.8511    0.2017    0.2937 N   0  0  0  0  0  0  0  0  0  0  0  0
    4.8849    0.0830   -0.7977 C   0  0  0  0  0  0  0  0  0  0  0  0
    6.0607   -1.0963    0.9342 C   0  0  0  0  0  0  0  0  0  0  0  0
    7.1183    0.7377   -0.2016 C   0  0  0  0  0  0  0  0  0  0  0  0
    3.5516   -0.4330   -0.2805 C   0  0  0  0  0  0  0  0  0  0  0  0
    7.0157   -0.9803    2.1101 C   0  0  0  0  0  0  0  0  0  0  0  0
    6.9195    2.0872   -0.8709 C   0  0  0  0  0  0  0  0  0  0  0  0
   -1.3848   -0.0293   -0.4820 C   0  0  0  0  0  0  0  0  0  0  0  0
    1.3116   -0.3556   -1.0755 C   0  0  0  0  0  0  0  0  0  0  0  0
   -2.7952    0.1413   -0.1704 C   0  0  0  0  0  0  0  0  0  0  0  0
   -0.8943    0.3534   -1.7303 C   0  0  0  0  0  0  0  0  0  0  0  0
   -0.5226   -0.5760    0.4686 C   0  0  0  0  0  0  0  0  0  0  0  0
    0.4585    0.1897   -2.0281 C   0  0  0  0  0  0  0  0  0  0  0  0
    0.8302   -0.7397    0.1708 C   0  0  0  0  0  0  0  0  0  0  0  0
   -3.7880   -0.9421   -0.4601 C   0  0  0  0  0  0  0  0  0  0  0  0
   -3.2549    1.2999    0.4001 C   0  0  0  0  0  0  0  0  0  0  0  0
   -4.6715    1.5213    0.7365 C   0  0  0  0  0  0  0  0  0  0  0  0
   -4.0350   -1.8803    0.5125 C   0  0  0  0  0  0  0  0  0  0  0  0
   -4.4084   -0.9505   -1.6859 C   0  0  0  0  0  0  0  0  0  0  0  0
   -4.9595   -2.8895    0.2428 C   0  0  0  0  0  0  0  0  0  0  0  0
   -5.3329   -1.9596   -1.9555 C   0  0  0  0  0  0  0  0  0  0  0  0
   -5.1366    1.1572    1.9903 C   0  0  0  0  0  0  0  0  0  0  0  0
   -5.5130    2.0895   -0.2066 C   0  0  0  0  0  0  0  0  0  0  0  0
   -5.6084   -2.9291   -0.9911 C   0  0  0  0  0  0  0  0  0  0  0  0
   -6.4783    1.3664    2.3091 C   0  0  0  0  0  0  0  0  0  0  0  0
   -6.8548    2.2989    0.1122 C   0  0  0  0  0  0  0  0  0  0  0  0
   -7.3374    1.9373    1.3701 C   0  0  0  0  0  0  0  0  0  0  0  0
    5.2516   -0.5708   -1.6006 H   0  0  0  0  0  0  0  0  0  0  0  0
    4.6717    1.0521   -1.2621 H   0  0  0  0  0  0  0  0  0  0  0  0
    5.1361   -1.4754    1.3773 H   0  0  0  0  0  0  0  0  0  0  0  0
    6.4275   -1.8515    0.2278 H   0  0  0  0  0  0  0  0  0  0  0  0
    7.8106    0.9180    0.6271 H   0  0  0  0  0  0  0  0  0  0  0  0
    7.6100    0.0494   -0.9007 H   0  0  0  0  0  0  0  0  0  0  0  0
    3.1945    0.2536    0.4988 H   0  0  0  0  0  0  0  0  0  0  0  0
    3.6259   -1.4468    0.1206 H   0  0  0  0  0  0  0  0  0  0  0  0
    8.0563   -0.8594    1.7938 H   0  0  0  0  0  0  0  0  0  0  0  0
    6.7460   -0.1507    2.7728 H   0  0  0  0  0  0  0  0  0  0  0  0
    6.9775   -1.8990    2.7065 H   0  0  0  0  0  0  0  0  0  0  0  0
    6.4746    2.0001   -1.8670 H   0  0  0  0  0  0  0  0  0  0  0  0
    6.3056    2.7588   -0.2611 H   0  0  0  0  0  0  0  0  0  0  0  0
    7.8924    2.5731   -1.0088 H   0  0  0  0  0  0  0  0  0  0  0  0
   -1.5523    0.7824   -2.4822 H   0  0  0  0  0  0  0  0  0  0  0  0
   -0.8899   -0.8841    1.4447 H   0  0  0  0  0  0  0  0  0  0  0  0
    0.8368    0.4898   -3.0011 H   0  0  0  0  0  0  0  0  0  0  0  0
    1.4606   -1.1948    0.9285 H   0  0  0  0  0  0  0  0  0  0  0  0
   -3.5348   -1.8582    1.4763 H   0  0  0  0  0  0  0  0  0  0  0  0
   -4.2006   -0.2005   -2.4432 H   0  0  0  0  0  0  0  0  0  0  0  0
   -5.1740   -3.6441    0.9938 H   0  0  0  0  0  0  0  0  0  0  0  0
   -5.8385   -1.9905   -2.9163 H   0  0  0  0  0  0  0  0  0  0  0  0
   -4.4777    0.7126    2.7316 H   0  0  0  0  0  0  0  0  0  0  0  0
   -5.1497    2.3767   -1.1898 H   0  0  0  0  0  0  0  0  0  0  0  0
   -6.3284   -3.7146   -1.2011 H   0  0  0  0  0  0  0  0  0  0  0  0
   -6.8542    1.0848    3.2883 H   0  0  0  0  0  0  0  0  0  0  0  0
   -7.5238    2.7433   -0.6188 H   0  0  0  0  0  0  0  0  0  0  0  0
   -8.3820    2.1002    1.6183 H   0  0  0  0  0  0  0  0  0  0  0  0
  1 18  1  0  0  0  0
  2  7  1  0  0  0  0
  2 11  1  0  0  0  0
  3  4  1  0  0  0  0
  3  5  1  0  0  0  0
  3  6  1  0  0  0  0
  4  7  1  0  0  0  0
  4 30  1  0  0  0  0
  4 31  1  0  0  0  0
  5  8  1  0  0  0  0
  5 32  1  0  0  0  0
  5 33  1  0  0  0  0
  6  9  1  0  0  0  0
  6 34  1  0  0  0  0
  6 35  1  0  0  0  0
  7 36  1  0  0  0  0
  7 37  1  0  0  0  0
  8 38  1  0  0  0  0
  8 39  1  0  0  0  0
  8 40  1  0  0  0  0
  9 41  1  0  0  0  0
  9 42  1  0  0  0  0
  9 43  1  0  0  0  0
 10 12  1  0  0  0  0
 10 13  2  0  0  0  0
 10 14  1  0  0  0  0
 11 15  2  0  0  0  0
 11 16  1  0  0  0  0
 12 17  1  0  0  0  0
 12 18  2  0  0  0  0
 13 15  1  0  0  0  0
 13 44  1  0  0  0  0
 14 16  2  0  0  0  0
 14 45  1  0  0  0  0
 15 46  1  0  0  0  0
 16 47  1  0  0  0  0
 17 20  2  0  0  0  0
 17 21  1  0  0  0  0
 18 19  1  0  0  0  0
 19 24  2  0  0  0  0
 19 25  1  0  0  0  0
 20 22  1  0  0  0  0
 20 48  1  0  0  0  0
 21 23  2  0  0  0  0
 21 49  1  0  0  0  0
 22 26  2  0  0  0  0
 22 50  1  0  0  0  0
 23 26  1  0  0  0  0
 23 51  1  0  0  0  0
 24 27  1  0  0  0  0
 24 52  1  0  0  0  0
 25 28  2  0  0  0  0
 25 53  1  0  0  0  0
 26 54  1  0  0  0  0
 27 29  2  0  0  0  0
 27 55  1  0  0  0  0
 28 29  1  0  0  0  0
 28 56  1  0  0  0  0
 29 57  1  0  0  0  0
M  END
