DB00639
 OpenBabel07062211533D

 42 44  0  0  1  0  0  0  0  0999 V2000
   -0.7140    1.6976    2.6801 Cl  0  0  0  0  0  0  0  0  0  0  0  0
    3.2821    2.6325   -0.9980 Cl  0  0  0  0  0  0  0  0  0  0  0  0
   -7.0675   -0.9723    0.0097 Cl  0  0  0  0  0  0  0  0  0  0  0  0
    2.0262    0.6704    1.2668 S   0  0  0  0  0  0  0  0  0  0  0  0
    3.2719   -1.8973    0.0787 N   0  0  0  0  0  0  0  0  0  0  0  0
    5.3942   -2.3672    0.4272 N   0  0  0  0  0  0  0  0  0  0  0  0
    1.2088   -0.4688    0.0866 C   0  0  2  0  0  0  0  0  0  0  0  0
   -0.3214   -0.4682    0.2841 C   0  0  0  0  0  0  0  0  0  0  0  0
    1.8241   -1.8655    0.2873 C   0  0  0  0  0  0  0  0  0  0  0  0
   -1.1183   -1.3528   -0.6893 C   0  0  0  0  0  0  0  0  0  0  0  0
   -2.6134   -1.2563   -0.5123 C   0  0  0  0  0  0  0  0  0  0  0  0
    1.2569    2.2212    0.8270 C   0  0  0  0  0  0  0  0  0  0  0  0
    3.9339   -1.3099   -0.9463 C   0  0  0  0  0  0  0  0  0  0  0  0
    4.1697   -2.5195    0.8806 C   0  0  0  0  0  0  0  0  0  0  0  0
   -3.2523   -2.1217    0.3623 C   0  0  0  0  0  0  0  0  0  0  0  0
   -3.3231   -0.3048   -1.2286 C   0  0  0  0  0  0  0  0  0  0  0  0
    5.2542   -1.6135   -0.7111 C   0  0  0  0  0  0  0  0  0  0  0  0
   -4.6350   -2.0332    0.5246 C   0  0  0  0  0  0  0  0  0  0  0  0
   -4.7057   -0.2163   -1.0662 C   0  0  0  0  0  0  0  0  0  0  0  0
    0.0726    2.6376    1.4555 C   0  0  0  0  0  0  0  0  0  0  0  0
    1.8257    3.0468   -0.1557 C   0  0  0  0  0  0  0  0  0  0  0  0
   -5.3617   -1.0805   -0.1897 C   0  0  0  0  0  0  0  0  0  0  0  0
   -0.5273    3.8487    1.1104 C   0  0  0  0  0  0  0  0  0  0  0  0
    1.2257    4.2578   -0.5008 C   0  0  0  0  0  0  0  0  0  0  0  0
    0.0491    4.6589    0.1323 C   0  0  0  0  0  0  0  0  0  0  0  0
    1.4186   -0.1096   -0.9270 H   0  0  0  0  0  0  0  0  0  0  0  0
   -0.5640   -0.7838    1.3064 H   0  0  0  0  0  0  0  0  0  0  0  0
   -0.7138    0.5395    0.1318 H   0  0  0  0  0  0  0  0  0  0  0  0
    1.4181   -2.5807   -0.4368 H   0  0  0  0  0  0  0  0  0  0  0  0
    1.6185   -2.2539    1.2924 H   0  0  0  0  0  0  0  0  0  0  0  0
   -0.8573   -1.0871   -1.7221 H   0  0  0  0  0  0  0  0  0  0  0  0
   -0.8214   -2.4022   -0.5742 H   0  0  0  0  0  0  0  0  0  0  0  0
    3.4525   -0.7584   -1.7413 H   0  0  0  0  0  0  0  0  0  0  0  0
    3.8931   -3.0656    1.7722 H   0  0  0  0  0  0  0  0  0  0  0  0
   -2.6947   -2.8653    0.9244 H   0  0  0  0  0  0  0  0  0  0  0  0
   -2.8206    0.3740   -1.9118 H   0  0  0  0  0  0  0  0  0  0  0  0
    6.1104   -1.3314   -1.3061 H   0  0  0  0  0  0  0  0  0  0  0  0
   -5.1327   -2.7129    1.2115 H   0  0  0  0  0  0  0  0  0  0  0  0
   -5.2588    0.5312   -1.6289 H   0  0  0  0  0  0  0  0  0  0  0  0
   -1.4446    4.1779    1.5922 H   0  0  0  0  0  0  0  0  0  0  0  0
    1.6593    4.9029   -1.2611 H   0  0  0  0  0  0  0  0  0  0  0  0
   -0.4182    5.6017   -0.1366 H   0  0  0  0  0  0  0  0  0  0  0  0
  1 20  1  0  0  0  0
  2 21  1  0  0  0  0
  3 22  1  0  0  0  0
  4  7  1  0  0  0  0
  4 12  1  0  0  0  0
  5  9  1  0  0  0  0
  5 13  1  0  0  0  0
  5 14  2  0  0  0  0
  6 14  1  0  0  0  0
  6 17  2  0  0  0  0
  7  8  1  0  0  0  0
  7  9  1  0  0  0  0
  7 26  1  6  0  0  0
  8 10  1  0  0  0  0
  8 27  1  0  0  0  0
  8 28  1  0  0  0  0
  9 29  1  0  0  0  0
  9 30  1  0  0  0  0
 10 11  1  0  0  0  0
 10 31  1  0  0  0  0
 10 32  1  0  0  0  0
 11 15  2  0  0  0  0
 11 16  1  0  0  0  0
 12 20  2  0  0  0  0
 12 21  1  0  0  0  0
 13 17  1  0  0  0  0
 13 33  1  0  0  0  0
 14 34  1  0  0  0  0
 15 18  1  0  0  0  0
 15 35  1  0  0  0  0
 16 19  2  0  0  0  0
 16 36  1  0  0  0  0
 17 37  1  0  0  0  0
 18 22  2  0  0  0  0
 18 38  1  0  0  0  0
 19 22  1  0  0  0  0
 19 39  1  0  0  0  0
 20 23  1  0  0  0  0
 21 24  2  0  0  0  0
 23 25  2  0  0  0  0
 23 40  1  0  0  0  0
 24 25  1  0  0  0  0
 24 41  1  0  0  0  0
 25 42  1  0  0  0  0
M  END
