DB00611
 OpenBabel07062211533D

 53 57  0  0  1  0  0  0  0  0999 V2000
    1.6784    1.1213    2.1143 O   0  0  0  0  0  0  0  0  0  0  0  0
    5.1325   -2.4175   -1.5330 O   0  0  0  0  0  0  0  0  0  0  0  0
   -1.2559   -0.1999    0.2282 N   0  0  0  0  0  0  0  0  0  0  0  0
    1.4854    0.7118   -0.2860 C   0  0  1  0  0  0  0  0  0  0  0  0
    0.7268    1.0442    1.0371 C   0  0  1  0  0  0  0  0  0  0  0  0
   -0.2672   -0.1073    1.3216 C   0  0  2  0  0  0  0  0  0  0  0  0
    0.4497    0.5149   -1.4331 C   0  0  0  0  0  0  0  0  0  0  0  0
    2.4474    1.8868   -0.6292 C   0  0  0  0  0  0  0  0  0  0  0  0
    0.0295    2.4221    0.9861 C   0  0  0  0  0  0  0  0  0  0  0  0
    2.2364   -0.6307   -0.1294 C   0  0  0  0  0  0  0  0  0  0  0  0
   -0.6673   -0.4798   -1.0828 C   0  0  0  0  0  0  0  0  0  0  0  0
    0.5259   -1.4031    1.6170 C   0  0  0  0  0  0  0  0  0  0  0  0
    1.7872    3.2685   -0.6159 C   0  0  0  0  0  0  0  0  0  0  0  0
    1.0190    3.5421    0.6690 C   0  0  0  0  0  0  0  0  0  0  0  0
    1.7506   -1.6205    0.7562 C   0  0  0  0  0  0  0  0  0  0  0  0
   -2.3623   -1.1056    0.5191 C   0  0  0  0  0  0  0  0  0  0  0  0
   -3.4655   -0.9546   -0.4789 C   0  0  0  0  0  0  0  0  0  0  0  0
   -4.0943    0.4527   -0.5445 C   0  0  0  0  0  0  0  0  0  0  0  0
   -4.8424   -1.4642   -0.0042 C   0  0  0  0  0  0  0  0  0  0  0  0
    3.3736   -0.9316   -0.9014 C   0  0  0  0  0  0  0  0  0  0  0  0
   -5.4564   -0.2481   -0.7289 C   0  0  0  0  0  0  0  0  0  0  0  0
    2.4266   -2.8468    0.8768 C   0  0  0  0  0  0  0  0  0  0  0  0
    4.0313   -2.1572   -0.7758 C   0  0  0  0  0  0  0  0  0  0  0  0
    3.5612   -3.1126    0.1158 C   0  0  0  0  0  0  0  0  0  0  0  0
   -0.8115    0.1428    2.2431 H   0  0  0  0  0  0  0  0  0  0  0  0
    0.9511    0.1753   -2.3491 H   0  0  0  0  0  0  0  0  0  0  0  0
   -0.0235    1.4693   -1.6910 H   0  0  0  0  0  0  0  0  0  0  0  0
    2.8732    1.7482   -1.6309 H   0  0  0  0  0  0  0  0  0  0  0  0
    3.3035    1.8961    0.0576 H   0  0  0  0  0  0  0  0  0  0  0  0
   -0.4251    2.6393    1.9610 H   0  0  0  0  0  0  0  0  0  0  0  0
   -0.7812    2.4404    0.2497 H   0  0  0  0  0  0  0  0  0  0  0  0
   -1.4087   -0.3779   -1.8822 H   0  0  0  0  0  0  0  0  0  0  0  0
   -0.2936   -1.5092   -1.1416 H   0  0  0  0  0  0  0  0  0  0  0  0
   -0.1232   -2.2832    1.5579 H   0  0  0  0  0  0  0  0  0  0  0  0
    0.8722   -1.3563    2.6591 H   0  0  0  0  0  0  0  0  0  0  0  0
    1.1105    3.3663   -1.4726 H   0  0  0  0  0  0  0  0  0  0  0  0
    2.5571    4.0376   -0.7495 H   0  0  0  0  0  0  0  0  0  0  0  0
    1.7195    3.6856    1.4995 H   0  0  0  0  0  0  0  0  0  0  0  0
    0.4727    4.4876    0.5692 H   0  0  0  0  0  0  0  0  0  0  0  0
   -2.0328   -2.1510    0.5383 H   0  0  0  0  0  0  0  0  0  0  0  0
   -2.7423   -0.8820    1.5246 H   0  0  0  0  0  0  0  0  0  0  0  0
   -3.2345   -1.3664   -1.4712 H   0  0  0  0  0  0  0  0  0  0  0  0
    2.3855    1.7452    1.8918 H   0  0  0  0  0  0  0  0  0  0  0  0
   -3.7720    1.0800   -1.3798 H   0  0  0  0  0  0  0  0  0  0  0  0
   -4.0293    1.0353    0.3825 H   0  0  0  0  0  0  0  0  0  0  0  0
   -4.9990   -1.4462    1.0809 H   0  0  0  0  0  0  0  0  0  0  0  0
   -5.1450   -2.4424   -0.3874 H   0  0  0  0  0  0  0  0  0  0  0  0
    3.7615   -0.2185   -1.6232 H   0  0  0  0  0  0  0  0  0  0  0  0
   -6.3066    0.2242   -0.2309 H   0  0  0  0  0  0  0  0  0  0  0  0
   -5.7154   -0.4421   -1.7761 H   0  0  0  0  0  0  0  0  0  0  0  0
    2.0642   -3.6045    1.5677 H   0  0  0  0  0  0  0  0  0  0  0  0
    4.0639   -4.0697    0.2245 H   0  0  0  0  0  0  0  0  0  0  0  0
    5.4586   -3.3088   -1.3197 H   0  0  0  0  0  0  0  0  0  0  0  0
  1  5  1  0  0  0  0
  1 43  1  0  0  0  0
  2 23  1  0  0  0  0
  2 53  1  0  0  0  0
  3  6  1  0  0  0  0
  3 11  1  0  0  0  0
  3 16  1  0  0  0  0
  4  5  1  1  0  0  0
  4  7  1  0  0  0  0
  4  8  1  0  0  0  0
  4 10  1  0  0  0  0
  5  6  1  1  0  0  0
  5  9  1  0  0  0  0
  6 12  1  0  0  0  0
  6 25  1  1  0  0  0
  7 11  1  0  0  0  0
  7 26  1  0  0  0  0
  7 27  1  0  0  0  0
  8 13  1  0  0  0  0
  8 28  1  0  0  0  0
  8 29  1  0  0  0  0
  9 14  1  0  0  0  0
  9 30  1  0  0  0  0
  9 31  1  0  0  0  0
 10 15  2  0  0  0  0
 10 20  1  0  0  0  0
 11 32  1  0  0  0  0
 11 33  1  0  0  0  0
 12 15  1  0  0  0  0
 12 34  1  0  0  0  0
 12 35  1  0  0  0  0
 13 14  1  0  0  0  0
 13 36  1  0  0  0  0
 13 37  1  0  0  0  0
 14 38  1  0  0  0  0
 14 39  1  0  0  0  0
 15 22  1  0  0  0  0
 16 17  1  0  0  0  0
 16 40  1  0  0  0  0
 16 41  1  0  0  0  0
 17 18  1  0  0  0  0
 17 19  1  0  0  0  0
 17 42  1  0  0  0  0
 18 21  1  0  0  0  0
 18 44  1  0  0  0  0
 18 45  1  0  0  0  0
 19 21  1  0  0  0  0
 19 46  1  0  0  0  0
 19 47  1  0  0  0  0
 20 23  2  0  0  0  0
 20 48  1  0  0  0  0
 21 49  1  0  0  0  0
 21 50  1  0  0  0  0
 22 24  2  0  0  0  0
 22 51  1  0  0  0  0
 23 24  1  0  0  0  0
 24 52  1  0  0  0  0
M  END
