DB00645
 OpenBabel07062211533D

 48 49  0  0  0  0  0  0  0  0999 V2000
   -1.1665   -2.6087   -0.6451 O   0  0  0  0  0  0  0  0  0  0  0  0
    4.2315    0.0935    1.1482 O   0  0  0  0  0  0  0  0  0  0  0  0
   -4.5891   -0.2768    0.1919 N   0  0  0  0  0  0  0  0  0  0  0  0
   -5.8868   -0.9132   -0.0740 C   0  0  0  0  0  0  0  0  0  0  0  0
   -4.4624    0.9949   -0.5339 C   0  0  0  0  0  0  0  0  0  0  0  0
   -7.0435   -0.0010    0.3378 C   0  0  0  0  0  0  0  0  0  0  0  0
   -5.5725    1.9693   -0.1375 C   0  0  0  0  0  0  0  0  0  0  0  0
   -6.9516    1.3558   -0.3510 C   0  0  0  0  0  0  0  0  0  0  0  0
   -3.4942   -1.1795   -0.1629 C   0  0  0  0  0  0  0  0  0  0  0  0
   -2.1416   -0.5842    0.2279 C   0  0  0  0  0  0  0  0  0  0  0  0
   -0.9879   -1.5172   -0.1094 C   0  0  0  0  0  0  0  0  0  0  0  0
    0.4025   -1.0883    0.2244 C   0  0  0  0  0  0  0  0  0  0  0  0
    0.5875    0.1360    0.8249 C   0  0  0  0  0  0  0  0  0  0  0  0
    1.4448   -1.9334   -0.0803 C   0  0  0  0  0  0  0  0  0  0  0  0
    6.4118    0.6291    0.3024 C   0  0  0  0  0  0  0  0  0  0  0  0
    2.9644   -0.2970    0.8415 C   0  0  0  0  0  0  0  0  0  0  0  0
    1.8863    0.5371    1.1376 C   0  0  0  0  0  0  0  0  0  0  0  0
    2.7435   -1.5323    0.2324 C   0  0  0  0  0  0  0  0  0  0  0  0
    5.2806   -0.3893    0.3104 C   0  0  0  0  0  0  0  0  0  0  0  0
    7.5659    0.1823   -0.5904 C   0  0  0  0  0  0  0  0  0  0  0  0
    8.6746    1.2218   -0.6295 C   0  0  0  0  0  0  0  0  0  0  0  0
   -5.9686   -1.8451    0.4986 H   0  0  0  0  0  0  0  0  0  0  0  0
   -5.9842   -1.1735   -1.1363 H   0  0  0  0  0  0  0  0  0  0  0  0
   -4.4814    0.8332   -1.6196 H   0  0  0  0  0  0  0  0  0  0  0  0
   -3.5314    1.5139   -0.2914 H   0  0  0  0  0  0  0  0  0  0  0  0
   -7.9981   -0.4781    0.0885 H   0  0  0  0  0  0  0  0  0  0  0  0
   -7.0309    0.1399    1.4260 H   0  0  0  0  0  0  0  0  0  0  0  0
   -5.4572    2.2496    0.9175 H   0  0  0  0  0  0  0  0  0  0  0  0
   -5.4845    2.8907   -0.7243 H   0  0  0  0  0  0  0  0  0  0  0  0
   -7.1358    1.2342   -1.4255 H   0  0  0  0  0  0  0  0  0  0  0  0
   -7.7264    2.0273    0.0351 H   0  0  0  0  0  0  0  0  0  0  0  0
   -3.6179   -2.1311    0.3705 H   0  0  0  0  0  0  0  0  0  0  0  0
   -3.5073   -1.4154   -1.2356 H   0  0  0  0  0  0  0  0  0  0  0  0
   -2.1338   -0.3829    1.3051 H   0  0  0  0  0  0  0  0  0  0  0  0
   -1.9434    0.3333   -0.3326 H   0  0  0  0  0  0  0  0  0  0  0  0
   -0.2183    0.8168    1.0737 H   0  0  0  0  0  0  0  0  0  0  0  0
    1.2937   -2.9012   -0.5484 H   0  0  0  0  0  0  0  0  0  0  0  0
    6.0235    1.5980   -0.0360 H   0  0  0  0  0  0  0  0  0  0  0  0
    6.7649    0.7901    1.3287 H   0  0  0  0  0  0  0  0  0  0  0  0
    5.6390   -1.3478    0.7033 H   0  0  0  0  0  0  0  0  0  0  0  0
    4.9397   -0.5226   -0.7245 H   0  0  0  0  0  0  0  0  0  0  0  0
    2.0528    1.5004    1.6122 H   0  0  0  0  0  0  0  0  0  0  0  0
    3.5516   -2.2231    0.0106 H   0  0  0  0  0  0  0  0  0  0  0  0
    7.9737   -0.7672   -0.2245 H   0  0  0  0  0  0  0  0  0  0  0  0
    7.2036    0.0083   -1.6103 H   0  0  0  0  0  0  0  0  0  0  0  0
    9.4915    0.8807   -1.2732 H   0  0  0  0  0  0  0  0  0  0  0  0
    9.0816    1.3988    0.3712 H   0  0  0  0  0  0  0  0  0  0  0  0
    8.3061    2.1740   -1.0242 H   0  0  0  0  0  0  0  0  0  0  0  0
  1 11  2  0  0  0  0
  2 16  1  0  0  0  0
  2 19  1  0  0  0  0
  3  4  1  0  0  0  0
  3  5  1  0  0  0  0
  3  9  1  0  0  0  0
  4  6  1  0  0  0  0
  4 22  1  0  0  0  0
  4 23  1  0  0  0  0
  5  7  1  0  0  0  0
  5 24  1  0  0  0  0
  5 25  1  0  0  0  0
  6  8  1  0  0  0  0
  6 26  1  0  0  0  0
  6 27  1  0  0  0  0
  7  8  1  0  0  0  0
  7 28  1  0  0  0  0
  7 29  1  0  0  0  0
  8 30  1  0  0  0  0
  8 31  1  0  0  0  0
  9 10  1  0  0  0  0
  9 32  1  0  0  0  0
  9 33  1  0  0  0  0
 10 11  1  0  0  0  0
 10 34  1  0  0  0  0
 10 35  1  0  0  0  0
 11 12  1  0  0  0  0
 12 13  2  0  0  0  0
 12 14  1  0  0  0  0
 13 17  1  0  0  0  0
 13 36  1  0  0  0  0
 14 18  2  0  0  0  0
 14 37  1  0  0  0  0
 15 19  1  0  0  0  0
 15 20  1  0  0  0  0
 15 38  1  0  0  0  0
 15 39  1  0  0  0  0
 16 17  2  0  0  0  0
 16 18  1  0  0  0  0
 17 42  1  0  0  0  0
 18 43  1  0  0  0  0
 19 40  1  0  0  0  0
 19 41  1  0  0  0  0
 20 21  1  0  0  0  0
 20 44  1  0  0  0  0
 20 45  1  0  0  0  0
 21 46  1  0  0  0  0
 21 47  1  0  0  0  0
 21 48  1  0  0  0  0
M  END
