DB00793
 OpenBabel07062211533D

 18 18  0  0  0  0  0  0  0  0999 V2000
    6.3405   -0.9644   -0.1013 I   0  0  0  0  0  0  0  0  0  0  0  0
    0.0737   -2.8100    0.3694 Cl  0  0  0  0  0  0  0  0  0  0  0  0
   -3.2177    2.4761   -0.0771 Cl  0  0  0  0  0  0  0  0  0  0  0  0
   -4.6289   -0.4019   -0.5283 Cl  0  0  0  0  0  0  0  0  0  0  0  0
    1.1016   -0.0087    0.7349 O   0  0  0  0  0  0  0  0  0  0  0  0
   -0.2260   -0.1076    0.4412 C   0  0  0  0  0  0  0  0  0  0  0  0
   -0.8337   -1.3479    0.2466 C   0  0  0  0  0  0  0  0  0  0  0  0
   -0.9787    1.0620    0.3370 C   0  0  0  0  0  0  0  0  0  0  0  0
   -2.3394    0.9912    0.0384 C   0  0  0  0  0  0  0  0  0  0  0  0
   -2.1944   -1.4186   -0.0522 C   0  0  0  0  0  0  0  0  0  0  0  0
   -2.9473   -0.2491   -0.1563 C   0  0  0  0  0  0  0  0  0  0  0  0
    1.9137    0.7257   -0.1783 C   0  0  0  0  0  0  0  0  0  0  0  0
    3.2793    0.2030   -0.1539 C   0  0  0  0  0  0  0  0  0  0  0  0
    4.4009   -0.2244   -0.1350 C   0  0  0  0  0  0  0  0  0  0  0  0
   -0.5061    2.0282    0.4986 H   0  0  0  0  0  0  0  0  0  0  0  0
   -2.6667   -2.3871   -0.2038 H   0  0  0  0  0  0  0  0  0  0  0  0
    1.5162    0.6534   -1.1986 H   0  0  0  0  0  0  0  0  0  0  0  0
    1.9128    1.7802    0.1189 H   0  0  0  0  0  0  0  0  0  0  0  0
  1 14  1  0  0  0  0
  2  7  1  0  0  0  0
  3  9  1  0  0  0  0
  4 11  1  0  0  0  0
  5  6  1  0  0  0  0
  5 12  1  0  0  0  0
  6  7  2  0  0  0  0
  6  8  1  0  0  0  0
  7 10  1  0  0  0  0
  8  9  2  0  0  0  0
  8 15  1  0  0  0  0
  9 11  1  0  0  0  0
 10 11  2  0  0  0  0
 10 16  1  0  0  0  0
 12 13  1  0  0  0  0
 12 17  1  0  0  0  0
 12 18  1  0  0  0  0
 13 14  3  0  0  0  0
M  END
