DB00179
 OpenBabel07062211533D

 44 45  0  0  1  0  0  0  0  0999 V2000
    5.9482   -0.5711   -1.7816 O   0  0  0  0  0  0  0  0  0  0  0  0
   -6.3844   -0.6980    0.2195 O   0  0  0  0  0  0  0  0  0  0  0  0
    6.9970    0.8014    0.3963 O   0  0  0  0  0  0  0  0  0  0  0  0
   -6.6128    2.0602   -0.0388 O   0  0  0  0  0  0  0  0  0  0  0  0
    0.7633   -0.7460    0.3633 C   0  0  2  0  0  0  0  0  0  0  0  0
   -0.7693   -0.5745    0.6144 C   0  0  1  0  0  0  0  0  0  0  0  0
    1.4094    0.4790   -0.3246 C   0  0  0  0  0  0  0  0  0  0  0  0
   -1.5954   -0.4394   -0.6886 C   0  0  0  0  0  0  0  0  0  0  0  0
    1.0415   -2.0311   -0.4350 C   0  0  0  0  0  0  0  0  0  0  0  0
   -1.3733   -1.7003    1.4659 C   0  0  0  0  0  0  0  0  0  0  0  0
    2.9066    0.5640   -0.1350 C   0  0  0  0  0  0  0  0  0  0  0  0
   -2.9387    0.2259   -0.5136 C   0  0  0  0  0  0  0  0  0  0  0  0
    3.7417   -0.0486   -1.0544 C   0  0  0  0  0  0  0  0  0  0  0  0
   -4.0496   -0.5511   -0.2257 C   0  0  0  0  0  0  0  0  0  0  0  0
    3.4130    1.2517    0.9552 C   0  0  0  0  0  0  0  0  0  0  0  0
   -3.0375    1.6023   -0.6449 C   0  0  0  0  0  0  0  0  0  0  0  0
    5.1232    0.0290   -0.8787 C   0  0  0  0  0  0  0  0  0  0  0  0
   -5.2913    0.0638   -0.0648 C   0  0  0  0  0  0  0  0  0  0  0  0
    4.7946    1.3293    1.1309 C   0  0  0  0  0  0  0  0  0  0  0  0
   -4.2789    2.2172   -0.4841 C   0  0  0  0  0  0  0  0  0  0  0  0
    5.6497    0.7181    0.2139 C   0  0  0  0  0  0  0  0  0  0  0  0
   -5.4060    1.4479   -0.1940 C   0  0  0  0  0  0  0  0  0  0  0  0
    1.2303   -0.8688    1.3506 H   0  0  0  0  0  0  0  0  0  0  0  0
   -0.8805    0.3523    1.1949 H   0  0  0  0  0  0  0  0  0  0  0  0
    1.1832    0.4878   -1.3986 H   0  0  0  0  0  0  0  0  0  0  0  0
    0.9615    1.4001    0.0722 H   0  0  0  0  0  0  0  0  0  0  0  0
   -1.0387    0.1446   -1.4312 H   0  0  0  0  0  0  0  0  0  0  0  0
   -1.7355   -1.4222   -1.1585 H   0  0  0  0  0  0  0  0  0  0  0  0
    2.1136   -2.2458   -0.4732 H   0  0  0  0  0  0  0  0  0  0  0  0
    0.6786   -1.9540   -1.4650 H   0  0  0  0  0  0  0  0  0  0  0  0
    0.5731   -2.9047    0.0270 H   0  0  0  0  0  0  0  0  0  0  0  0
   -1.5039   -2.6269    0.8981 H   0  0  0  0  0  0  0  0  0  0  0  0
   -0.7304   -1.9183    2.3256 H   0  0  0  0  0  0  0  0  0  0  0  0
   -2.3493   -1.4117    1.8682 H   0  0  0  0  0  0  0  0  0  0  0  0
    3.3368   -0.5806   -1.9109 H   0  0  0  0  0  0  0  0  0  0  0  0
   -3.9597   -1.6301   -0.1318 H   0  0  0  0  0  0  0  0  0  0  0  0
    2.7549    1.7286    1.6757 H   0  0  0  0  0  0  0  0  0  0  0  0
   -2.1652    2.2100   -0.8678 H   0  0  0  0  0  0  0  0  0  0  0  0
    5.1912    1.8688    1.9869 H   0  0  0  0  0  0  0  0  0  0  0  0
   -4.3615    3.2959   -0.5852 H   0  0  0  0  0  0  0  0  0  0  0  0
    6.8683   -0.4167   -1.5049 H   0  0  0  0  0  0  0  0  0  0  0  0
   -6.1155   -1.6312    0.2727 H   0  0  0  0  0  0  0  0  0  0  0  0
    7.1764    1.3151    1.2025 H   0  0  0  0  0  0  0  0  0  0  0  0
   -7.2787    1.3783    0.1574 H   0  0  0  0  0  0  0  0  0  0  0  0
  1 17  1  0  0  0  0
  1 41  1  0  0  0  0
  2 18  1  0  0  0  0
  2 42  1  0  0  0  0
  3 21  1  0  0  0  0
  3 43  1  0  0  0  0
  4 22  1  0  0  0  0
  4 44  1  0  0  0  0
  5  6  1  0  0  0  0
  5  7  1  0  0  0  0
  5  9  1  0  0  0  0
  5 23  1  1  0  0  0
  6  8  1  0  0  0  0
  6 10  1  0  0  0  0
  6 24  1  1  0  0  0
  7 11  1  0  0  0  0
  7 25  1  0  0  0  0
  7 26  1  0  0  0  0
  8 12  1  0  0  0  0
  8 27  1  0  0  0  0
  8 28  1  0  0  0  0
  9 29  1  0  0  0  0
  9 30  1  0  0  0  0
  9 31  1  0  0  0  0
 10 32  1  0  0  0  0
 10 33  1  0  0  0  0
 10 34  1  0  0  0  0
 11 13  2  0  0  0  0
 11 15  1  0  0  0  0
 12 14  2  0  0  0  0
 12 16  1  0  0  0  0
 13 17  1  0  0  0  0
 13 35  1  0  0  0  0
 14 18  1  0  0  0  0
 14 36  1  0  0  0  0
 15 19  2  0  0  0  0
 15 37  1  0  0  0  0
 16 20  2  0  0  0  0
 16 38  1  0  0  0  0
 17 21  2  0  0  0  0
 18 22  2  0  0  0  0
 19 21  1  0  0  0  0
 19 39  1  0  0  0  0
 20 22  1  0  0  0  0
 20 40  1  0  0  0  0
M  END
