DB00769
 OpenBabel07062211533D

 75 78  0  0  1  0  0  0  0  0999 V2000
   -0.4773   -1.4337    1.6985 O   0  0  0  0  0  0  0  0  0  0  0  0
    2.2909    1.5852   -1.5310 O   0  0  0  0  0  0  0  0  0  0  0  0
   -2.0496   -2.0763   -1.2810 O   0  0  0  0  0  0  0  0  0  0  0  0
   -3.7394   -0.2384   -0.2881 O   0  0  0  0  0  0  0  0  0  0  0  0
    8.3684    2.1767    2.0047 O   0  0  0  0  0  0  0  0  0  0  0  0
   -4.3551    1.4205    1.1909 O   0  0  0  0  0  0  0  0  0  0  0  0
   -6.9740    1.1125    0.2707 N   0  0  0  0  0  0  0  0  0  0  0  0
    0.8300   -0.8611   -0.3037 C   0  0  1  0  0  0  0  0  0  0  0  0
    2.0478   -1.6499    0.2246 C   0  0  2  0  0  0  0  0  0  0  0  0
    3.3963   -1.0973   -0.2611 C   0  0  1  0  0  0  0  0  0  0  0  0
    3.5377    0.3829    0.2217 C   0  0  1  0  0  0  0  0  0  0  0  0
   -0.3138   -1.7139    0.3115 C   0  0  1  0  0  0  0  0  0  0  0  0
    0.9526    0.5843    0.2206 C   0  0  0  0  0  0  0  0  0  0  0  0
    4.9448    1.0158   -0.1348 C   0  0  2  0  0  0  0  0  0  0  0  0
    2.2956    1.2518   -0.1501 C   0  0  2  0  0  0  0  0  0  0  0  0
    1.6910   -3.1014   -0.0853 C   0  0  0  0  0  0  0  0  0  0  0  0
    0.1660   -3.1736    0.1391 C   0  0  0  0  0  0  0  0  0  0  0  0
    4.5514   -1.9502    0.2865 C   0  0  0  0  0  0  0  0  0  0  0  0
    0.7145   -0.8767   -1.8531 C   0  0  0  0  0  0  0  0  0  0  0  0
    6.0566    0.0583    0.3151 C   0  0  0  0  0  0  0  0  0  0  0  0
    5.9079   -1.3837   -0.1044 C   0  0  0  0  0  0  0  0  0  0  0  0
    5.0699    2.3697    0.6230 C   0  0  0  0  0  0  0  0  0  0  0  0
    5.1448    1.2670   -1.6466 C   0  0  0  0  0  0  0  0  0  0  0  0
   -1.6596   -1.4505   -0.2963 C   0  0  0  0  0  0  0  0  0  0  0  0
    6.4946    2.8953    0.6981 C   0  0  0  0  0  0  0  0  0  0  0  0
    7.1413    0.4369    1.0115 C   0  0  0  0  0  0  0  0  0  0  0  0
    7.3975    1.8626    1.3196 C   0  0  0  0  0  0  0  0  0  0  0  0
   -2.4975   -0.3794    0.3688 C   0  0  0  0  0  0  0  0  0  0  0  0
   -4.5952    0.7090    0.2249 C   0  0  0  0  0  0  0  0  0  0  0  0
   -5.8642    0.7285   -0.5904 C   0  0  0  0  0  0  0  0  0  0  0  0
   -7.4332   -0.0302    1.0634 C   0  0  0  0  0  0  0  0  0  0  0  0
   -8.0795    1.6557   -0.5218 C   0  0  0  0  0  0  0  0  0  0  0  0
   -8.5917    0.3581    1.9664 C   0  0  0  0  0  0  0  0  0  0  0  0
   -8.5933    0.6328   -1.5207 C   0  0  0  0  0  0  0  0  0  0  0  0
    2.0626   -1.5712    1.3245 H   0  0  0  0  0  0  0  0  0  0  0  0
    3.4412   -1.1371   -1.3543 H   0  0  0  0  0  0  0  0  0  0  0  0
    3.5112    0.3240    1.3230 H   0  0  0  0  0  0  0  0  0  0  0  0
    0.1290    1.1904   -0.1731 H   0  0  0  0  0  0  0  0  0  0  0  0
    0.8665    0.5988    1.3139 H   0  0  0  0  0  0  0  0  0  0  0  0
    2.3504    2.1995    0.3971 H   0  0  0  0  0  0  0  0  0  0  0  0
    2.2184   -3.8029    0.5694 H   0  0  0  0  0  0  0  0  0  0  0  0
    1.9396   -3.3633   -1.1197 H   0  0  0  0  0  0  0  0  0  0  0  0
   -0.0462   -3.7743    1.0311 H   0  0  0  0  0  0  0  0  0  0  0  0
   -0.2930   -3.6863   -0.7128 H   0  0  0  0  0  0  0  0  0  0  0  0
    4.4847   -2.0162    1.3805 H   0  0  0  0  0  0  0  0  0  0  0  0
    4.4767   -2.9746   -0.0967 H   0  0  0  0  0  0  0  0  0  0  0  0
    0.4858   -1.8713   -2.2492 H   0  0  0  0  0  0  0  0  0  0  0  0
   -0.0834   -0.2039   -2.1883 H   0  0  0  0  0  0  0  0  0  0  0  0
    1.6307   -0.5602   -2.3550 H   0  0  0  0  0  0  0  0  0  0  0  0
    6.0368   -1.4554   -1.1913 H   0  0  0  0  0  0  0  0  0  0  0  0
    6.6916   -2.0106    0.3386 H   0  0  0  0  0  0  0  0  0  0  0  0
    4.4387    3.1346    0.1550 H   0  0  0  0  0  0  0  0  0  0  0  0
    4.7002    2.2496    1.6511 H   0  0  0  0  0  0  0  0  0  0  0  0
    4.5921    2.1461   -1.9921 H   0  0  0  0  0  0  0  0  0  0  0  0
    6.1984    1.4556   -1.8871 H   0  0  0  0  0  0  0  0  0  0  0  0
    4.8290    0.4132   -2.2540 H   0  0  0  0  0  0  0  0  0  0  0  0
   -1.0368   -2.1273    2.0882 H   0  0  0  0  0  0  0  0  0  0  0  0
    6.8854    3.1572   -0.2902 H   0  0  0  0  0  0  0  0  0  0  0  0
    6.5135    3.7953    1.3224 H   0  0  0  0  0  0  0  0  0  0  0  0
    1.5301    2.1684   -1.6933 H   0  0  0  0  0  0  0  0  0  0  0  0
    7.9014   -0.2727    1.3204 H   0  0  0  0  0  0  0  0  0  0  0  0
   -2.6974   -0.6680    1.4053 H   0  0  0  0  0  0  0  0  0  0  0  0
   -1.9596    0.5709    0.3314 H   0  0  0  0  0  0  0  0  0  0  0  0
   -5.6893    1.4651   -1.3845 H   0  0  0  0  0  0  0  0  0  0  0  0
   -6.0141   -0.2532   -1.0560 H   0  0  0  0  0  0  0  0  0  0  0  0
   -7.6987   -0.9083    0.4635 H   0  0  0  0  0  0  0  0  0  0  0  0
   -6.6146   -0.3537    1.7190 H   0  0  0  0  0  0  0  0  0  0  0  0
   -8.8941    2.0410    0.0998 H   0  0  0  0  0  0  0  0  0  0  0  0
   -7.7224    2.5369   -1.0711 H   0  0  0  0  0  0  0  0  0  0  0  0
   -9.5356    0.4596    1.4223 H   0  0  0  0  0  0  0  0  0  0  0  0
   -8.7475   -0.4262    2.7159 H   0  0  0  0  0  0  0  0  0  0  0  0
   -8.3904    1.2879    2.5096 H   0  0  0  0  0  0  0  0  0  0  0  0
   -7.8314    0.2915   -2.2273 H   0  0  0  0  0  0  0  0  0  0  0  0
   -9.0575   -0.2380   -1.0499 H   0  0  0  0  0  0  0  0  0  0  0  0
   -9.3779    1.1017   -2.1271 H   0  0  0  0  0  0  0  0  0  0  0  0
  1 12  1  0  0  0  0
  1 57  1  0  0  0  0
  2 15  1  0  0  0  0
  2 60  1  0  0  0  0
  3 24  2  0  0  0  0
  4 28  1  0  0  0  0
  4 29  1  0  0  0  0
  5 27  2  0  0  0  0
  6 29  2  0  0  0  0
  7 30  1  0  0  0  0
  7 31  1  0  0  0  0
  7 32  1  0  0  0  0
  8  9  1  1  0  0  0
  8 13  1  0  0  0  0
  8 19  1  0  0  0  0
  9 10  1  6  0  0  0
  9 16  1  0  0  0  0
  9 35  1  0  0  0  0
 10 11  1  1  0  0  0
 10 18  1  0  0  0  0
 10 36  1  0  0  0  0
 11 14  1  6  0  0  0
 11 37  1  0  0  0  0
 12  8  1  6  0  0  0
 12 17  1  0  0  0  0
 12 24  1  0  0  0  0
 13 15  1  0  0  0  0
 13 38  1  0  0  0  0
 13 39  1  0  0  0  0
 14 20  1  0  0  0  0
 14 22  1  0  0  0  0
 14 23  1  6  0  0  0
 15 11  1  1  0  0  0
 15 40  1  0  0  0  0
 16 17  1  0  0  0  0
 16 41  1  0  0  0  0
 16 42  1  0  0  0  0
 17 43  1  0  0  0  0
 17 44  1  0  0  0  0
 18 21  1  0  0  0  0
 18 45  1  0  0  0  0
 18 46  1  0  0  0  0
 19 47  1  0  0  0  0
 19 48  1  0  0  0  0
 19 49  1  0  0  0  0
 20 21  1  0  0  0  0
 20 26  2  0  0  0  0
 21 50  1  0  0  0  0
 21 51  1  0  0  0  0
 22 25  1  0  0  0  0
 22 52  1  0  0  0  0
 22 53  1  0  0  0  0
 23 54  1  0  0  0  0
 23 55  1  0  0  0  0
 23 56  1  0  0  0  0
 24 28  1  0  0  0  0
 25 27  1  0  0  0  0
 25 58  1  0  0  0  0
 25 59  1  0  0  0  0
 26 27  1  0  0  0  0
 26 61  1  0  0  0  0
 28 62  1  0  0  0  0
 28 63  1  0  0  0  0
 29 30  1  0  0  0  0
 30 64  1  0  0  0  0
 30 65  1  0  0  0  0
 31 33  1  0  0  0  0
 31 66  1  0  0  0  0
 31 67  1  0  0  0  0
 32 34  1  0  0  0  0
 32 68  1  0  0  0  0
 32 69  1  0  0  0  0
 33 70  1  0  0  0  0
 33 71  1  0  0  0  0
 33 72  1  0  0  0  0
 34 73  1  0  0  0  0
 34 74  1  0  0  0  0
 34 75  1  0  0  0  0
M  END
