DB00716
 OpenBabel07062211533D

 44 46  0  0  0  0  0  0  0  0999 V2000
   -2.7595   -0.0052    0.1180 O   0  0  0  0  0  0  0  0  0  0  0  0
    1.8800    4.3453   -0.1633 O   0  0  0  0  0  0  0  0  0  0  0  0
   -3.1758    4.0414   -0.1301 O   0  0  0  0  0  0  0  0  0  0  0  0
    4.7690    0.2034   -1.5672 O   0  0  0  0  0  0  0  0  0  0  0  0
    5.3256    0.2926    0.6493 O   0  0  0  0  0  0  0  0  0  0  0  0
   -4.7748   -1.5523    0.2274 O   0  0  0  0  0  0  0  0  0  0  0  0
   -6.3223    0.1290    0.1337 O   0  0  0  0  0  0  0  0  0  0  0  0
    2.0895    0.2803    0.0900 N   0  0  0  0  0  0  0  0  0  0  0  0
    0.8024    0.8873    0.0488 C   0  0  0  0  0  0  0  0  0  0  0  0
   -0.4001    0.1554    0.0966 C   0  0  0  0  0  0  0  0  0  0  0  0
    0.6937    2.2937   -0.0538 C   0  0  0  0  0  0  0  0  0  0  0  0
   -0.4627   -1.3329    0.2840 C   0  0  0  0  0  0  0  0  0  0  0  0
   -1.6443    0.7956    0.0636 C   0  0  0  0  0  0  0  0  0  0  0  0
   -1.7175    2.1817   -0.0231 C   0  0  0  0  0  0  0  0  0  0  0  0
   -0.5511    2.9402   -0.0844 C   0  0  0  0  0  0  0  0  0  0  0  0
    2.1337   -1.1577    0.3598 C   0  0  0  0  0  0  0  0  0  0  0  0
    3.2147    1.0742   -0.1124 C   0  0  0  0  0  0  0  0  0  0  0  0
   -0.4332   -2.0790   -1.0529 C   0  0  0  0  0  0  0  0  0  0  0  0
    1.9205    3.1217   -0.1407 C   0  0  0  0  0  0  0  0  0  0  0  0
    3.2135    2.4097   -0.2223 C   0  0  0  0  0  0  0  0  0  0  0  0
   -3.0411    2.8279   -0.0554 C   0  0  0  0  0  0  0  0  0  0  0  0
    2.2296   -1.4060    1.8529 C   0  0  0  0  0  0  0  0  0  0  0  0
   -0.4648   -3.5860   -0.8543 C   0  0  0  0  0  0  0  0  0  0  0  0
   -3.9943    0.6074    0.0886 C   0  0  0  0  0  0  0  0  0  0  0  0
   -4.2089    1.9261    0.0088 C   0  0  0  0  0  0  0  0  0  0  0  0
    4.5540    0.4847   -0.2675 C   0  0  0  0  0  0  0  0  0  0  0  0
   -5.1691   -0.2638    0.1503 C   0  0  0  0  0  0  0  0  0  0  0  0
    0.1185   -1.7672    1.0853 H   0  0  0  0  0  0  0  0  0  0  0  0
   -1.4358   -1.5977    0.7249 H   0  0  0  0  0  0  0  0  0  0  0  0
   -0.6081    4.0227   -0.1607 H   0  0  0  0  0  0  0  0  0  0  0  0
    1.6079   -1.8616   -0.2524 H   0  0  0  0  0  0  0  0  0  0  0  0
    3.1275   -1.4900    0.0184 H   0  0  0  0  0  0  0  0  0  0  0  0
   -1.3351   -1.8074   -1.6199 H   0  0  0  0  0  0  0  0  0  0  0  0
    0.3907   -1.7926   -1.7163 H   0  0  0  0  0  0  0  0  0  0  0  0
    4.1091    3.0008   -0.3777 H   0  0  0  0  0  0  0  0  0  0  0  0
    3.1800   -1.0283    2.2485 H   0  0  0  0  0  0  0  0  0  0  0  0
    1.4398   -0.9129    2.4289 H   0  0  0  0  0  0  0  0  0  0  0  0
    2.1980   -2.4802    2.0640 H   0  0  0  0  0  0  0  0  0  0  0  0
    0.4206   -3.9343   -0.3137 H   0  0  0  0  0  0  0  0  0  0  0  0
   -1.3527   -3.8899   -0.2905 H   0  0  0  0  0  0  0  0  0  0  0  0
   -0.4917   -4.0944   -1.8233 H   0  0  0  0  0  0  0  0  0  0  0  0
   -5.1924    2.3808   -0.0128 H   0  0  0  0  0  0  0  0  0  0  0  0
    5.6533   -0.1935   -1.7179 H   0  0  0  0  0  0  0  0  0  0  0  0
   -5.5365   -2.1691    0.2706 H   0  0  0  0  0  0  0  0  0  0  0  0
  1 13  1  0  0  0  0
  1 24  1  0  0  0  0
  2 19  2  0  0  0  0
  3 21  2  0  0  0  0
  4 26  1  0  0  0  0
  4 43  1  0  0  0  0
  5 26  2  0  0  0  0
  6 27  1  0  0  0  0
  6 44  1  0  0  0  0
  7 27  2  0  0  0  0
  8  9  1  0  0  0  0
  8 16  1  0  0  0  0
  8 17  2  0  0  0  0
  9 10  2  0  0  0  0
  9 11  1  0  0  0  0
 10 12  1  0  0  0  0
 10 13  1  0  0  0  0
 11 15  2  0  0  0  0
 11 19  1  0  0  0  0
 12 18  1  0  0  0  0
 12 28  1  0  0  0  0
 12 29  1  0  0  0  0
 13 14  2  0  0  0  0
 14 15  1  0  0  0  0
 14 21  1  0  0  0  0
 15 30  1  0  0  0  0
 16 22  1  0  0  0  0
 16 31  1  0  0  0  0
 16 32  1  0  0  0  0
 17 20  1  0  0  0  0
 17 26  1  0  0  0  0
 18 23  1  0  0  0  0
 18 33  1  0  0  0  0
 18 34  1  0  0  0  0
 19 20  1  0  0  0  0
 20 35  1  0  0  0  0
 21 25  1  0  0  0  0
 22 36  1  0  0  0  0
 22 37  1  0  0  0  0
 22 38  1  0  0  0  0
 23 39  1  0  0  0  0
 23 40  1  0  0  0  0
 23 41  1  0  0  0  0
 24 25  2  0  0  0  0
 24 27  1  0  0  0  0
 25 42  1  0  0  0  0
M  END
