DB00554
 OpenBabel07062211533D

 36 38  0  0  0  0  0  0  0  0999 V2000
   -1.7344    1.7338    0.6932 S   0  0  0  0  0  0  0  0  0  0  0  0
   -1.3187    1.6028    2.0766 O   0  0  0  0  0  0  0  0  0  0  0  0
   -2.1324    3.0171    0.1481 O   0  0  0  0  0  0  0  0  0  0  0  0
   -1.2006   -2.5410    0.5122 O   0  0  0  0  0  0  0  0  0  0  0  0
    1.3641   -1.9327   -0.5147 O   0  0  0  0  0  0  0  0  0  0  0  0
   -0.5580    1.0111   -0.3447 N   0  0  0  0  0  0  0  0  0  0  0  0
    1.9646    0.2250    0.2133 N   0  0  0  0  0  0  0  0  0  0  0  0
    4.0546    1.2862    0.6204 N   0  0  0  0  0  0  0  0  0  0  0  0
   -3.0690    0.6121    0.4745 C   0  0  0  0  0  0  0  0  0  0  0  0
   -2.7527   -0.7347    0.2602 C   0  0  0  0  0  0  0  0  0  0  0  0
   -0.3080   -0.3774   -0.0472 C   0  0  0  0  0  0  0  0  0  0  0  0
   -1.3430   -1.1942    0.2354 C   0  0  0  0  0  0  0  0  0  0  0  0
   -4.3808    1.0830    0.4989 C   0  0  0  0  0  0  0  0  0  0  0  0
   -0.6624    1.3285   -1.7988 C   0  0  0  0  0  0  0  0  0  0  0  0
   -3.8213   -1.6252    0.0829 C   0  0  0  0  0  0  0  0  0  0  0  0
    1.0942   -0.7928   -0.1462 C   0  0  0  0  0  0  0  0  0  0  0  0
   -5.4226    0.1794    0.3162 C   0  0  0  0  0  0  0  0  0  0  0  0
   -5.1447   -1.1712    0.1097 C   0  0  0  0  0  0  0  0  0  0  0  0
    3.3799    0.1792    0.2369 C   0  0  0  0  0  0  0  0  0  0  0  0
    3.9871   -1.0085   -0.1379 C   0  0  0  0  0  0  0  0  0  0  0  0
    5.3763   -1.0636   -0.1177 C   0  0  0  0  0  0  0  0  0  0  0  0
    5.4035    1.1949    0.6275 C   0  0  0  0  0  0  0  0  0  0  0  0
    6.1054    0.0548    0.2712 C   0  0  0  0  0  0  0  0  0  0  0  0
   -4.6049    2.1319    0.6646 H   0  0  0  0  0  0  0  0  0  0  0  0
    0.1766    0.8868   -2.3465 H   0  0  0  0  0  0  0  0  0  0  0  0
   -1.5966    0.9445   -2.2185 H   0  0  0  0  0  0  0  0  0  0  0  0
   -0.6104    2.4110   -1.9474 H   0  0  0  0  0  0  0  0  0  0  0  0
   -3.6466   -2.6847   -0.0897 H   0  0  0  0  0  0  0  0  0  0  0  0
   -6.4521    0.5249    0.3350 H   0  0  0  0  0  0  0  0  0  0  0  0
   -5.9596   -1.8753   -0.0333 H   0  0  0  0  0  0  0  0  0  0  0  0
    1.5734    1.1199    0.4986 H   0  0  0  0  0  0  0  0  0  0  0  0
   -0.2559   -2.7667    0.4882 H   0  0  0  0  0  0  0  0  0  0  0  0
    3.4894   -1.9119   -0.4496 H   0  0  0  0  0  0  0  0  0  0  0  0
    5.8916   -1.9757   -0.4041 H   0  0  0  0  0  0  0  0  0  0  0  0
    5.9253    2.0940    0.9382 H   0  0  0  0  0  0  0  0  0  0  0  0
    7.1889    0.0346    0.2945 H   0  0  0  0  0  0  0  0  0  0  0  0
  1  2  2  0  0  0  0
  1  3  2  0  0  0  0
  1  6  1  0  0  0  0
  1  9  1  0  0  0  0
  4 12  1  0  0  0  0
  4 32  1  0  0  0  0
  5 16  2  0  0  0  0
  6 11  1  0  0  0  0
  6 14  1  0  0  0  0
  7 16  1  0  0  0  0
  7 19  1  0  0  0  0
  7 31  1  0  0  0  0
  8 19  2  0  0  0  0
  8 22  1  0  0  0  0
  9 10  2  0  0  0  0
  9 13  1  0  0  0  0
 10 12  1  0  0  0  0
 10 15  1  0  0  0  0
 11 12  2  0  0  0  0
 11 16  1  0  0  0  0
 13 17  2  0  0  0  0
 13 24  1  0  0  0  0
 14 25  1  0  0  0  0
 14 26  1  0  0  0  0
 14 27  1  0  0  0  0
 15 18  2  0  0  0  0
 15 28  1  0  0  0  0
 17 18  1  0  0  0  0
 17 29  1  0  0  0  0
 18 30  1  0  0  0  0
 19 20  1  0  0  0  0
 20 21  2  0  0  0  0
 20 33  1  0  0  0  0
 21 23  1  0  0  0  0
 21 34  1  0  0  0  0
 22 23  2  0  0  0  0
 22 35  1  0  0  0  0
 23 36  1  0  0  0  0
M  END
