DB00730
 OpenBabel07062211533D

 21 23  0  0  0  0  0  0  0  0999 V2000
    4.8005    0.9477   -0.0006 S   0  0  0  0  0  0  0  0  0  0  0  0
    0.1759   -1.0209    0.0006 N   0  0  0  0  0  0  0  0  0  0  0  0
    0.1690    1.2017    0.0005 N   0  0  0  0  0  0  0  0  0  0  0  0
    3.1332   -1.0279    0.0001 N   0  0  0  0  0  0  0  0  0  0  0  0
   -1.1468   -0.6590    0.0003 C   0  0  0  0  0  0  0  0  0  0  0  0
   -1.1247    0.7330    0.0003 C   0  0  0  0  0  0  0  0  0  0  0  0
    0.9221    0.1245    0.0004 C   0  0  0  0  0  0  0  0  0  0  0  0
    2.3962    0.1406    0.0002 C   0  0  0  0  0  0  0  0  0  0  0  0
   -2.3248   -1.4068   -0.0001 C   0  0  0  0  0  0  0  0  0  0  0  0
   -2.3405    1.4374    0.0002 C   0  0  0  0  0  0  0  0  0  0  0  0
   -3.5256   -0.6896   -0.0004 C   0  0  0  0  0  0  0  0  0  0  0  0
   -3.5355    0.7072   -0.0001 C   0  0  0  0  0  0  0  0  0  0  0  0
    3.1245    1.3119   -0.0002 C   0  0  0  0  0  0  0  0  0  0  0  0
    4.4121   -0.7239   -0.0002 C   0  0  0  0  0  0  0  0  0  0  0  0
    0.5323   -1.9675    0.0006 H   0  0  0  0  0  0  0  0  0  0  0  0
   -2.3145   -2.4908   -0.0001 H   0  0  0  0  0  0  0  0  0  0  0  0
   -2.3589    2.5225    0.0002 H   0  0  0  0  0  0  0  0  0  0  0  0
   -4.4688   -1.2305   -0.0007 H   0  0  0  0  0  0  0  0  0  0  0  0
   -4.4849    1.2366   -0.0003 H   0  0  0  0  0  0  0  0  0  0  0  0
    2.7760    2.3356   -0.0002 H   0  0  0  0  0  0  0  0  0  0  0  0
    5.1834   -1.4819   -0.0003 H   0  0  0  0  0  0  0  0  0  0  0  0
  1 13  1  0  0  0  0
  1 14  1  0  0  0  0
  2  5  1  0  0  0  0
  2  7  1  0  0  0  0
  2 15  1  0  0  0  0
  3  6  1  0  0  0  0
  3  7  2  0  0  0  0
  4  8  1  0  0  0  0
  4 14  2  0  0  0  0
  5  6  2  0  0  0  0
  5  9  1  0  0  0  0
  6 10  1  0  0  0  0
  7  8  1  0  0  0  0
  8 13  2  0  0  0  0
  9 11  2  0  0  0  0
  9 16  1  0  0  0  0
 10 12  2  0  0  0  0
 10 17  1  0  0  0  0
 11 12  1  0  0  0  0
 11 18  1  0  0  0  0
 12 19  1  0  0  0  0
 13 20  1  0  0  0  0
 14 21  1  0  0  0  0
M  END
