DB00722
 OpenBabel07062211533D

 60 61  0  0  1  0  0  0  0  0999 V2000
    0.4963   -1.5314    1.7480 O   0  0  0  0  0  0  0  0  0  0  0  0
    2.1671   -4.9538    2.3169 O   0  0  0  0  0  0  0  0  0  0  0  0
    3.6485   -3.2922    1.8268 O   0  0  0  0  0  0  0  0  0  0  0  0
   -1.1647    0.3602   -2.9126 O   0  0  0  0  0  0  0  0  0  0  0  0
   -0.5113    2.2309   -1.8116 O   0  0  0  0  0  0  0  0  0  0  0  0
    1.8530   -2.2906    0.0333 N   0  0  0  0  0  0  0  0  0  0  0  0
   -0.0825    0.6854    0.4292 N   0  0  0  0  0  0  0  0  0  0  0  0
    4.6657    5.3287    0.8612 N   0  0  0  0  0  0  0  0  0  0  0  0
    1.7664   -3.7063    0.3668 C   0  0  1  0  0  0  0  0  0  0  0  0
    2.2955   -4.4279   -0.8673 C   0  0  0  0  0  0  0  0  0  0  0  0
    2.6305   -2.0831   -1.1857 C   0  0  0  0  0  0  0  0  0  0  0  0
    3.2817   -3.4287   -1.4671 C   0  0  0  0  0  0  0  0  0  0  0  0
    1.2080    0.0695    0.1356 C   0  0  2  0  0  0  0  0  0  0  0  0
    1.1423   -1.3188    0.7205 C   0  0  0  0  0  0  0  0  0  0  0  0
    2.3538    0.8829    0.7462 C   0  0  0  0  0  0  0  0  0  0  0  0
   -1.0931    0.2486   -0.5229 C   0  0  1  0  0  0  0  0  0  0  0  0
    2.4213    2.3032    0.1707 C   0  0  0  0  0  0  0  0  0  0  0  0
    2.6420   -3.9329    1.5623 C   0  0  0  0  0  0  0  0  0  0  0  0
   -2.4870    0.4834    0.0755 C   0  0  0  0  0  0  0  0  0  0  0  0
    3.5422    3.1530    0.7790 C   0  0  0  0  0  0  0  0  0  0  0  0
   -3.6501    0.0415   -0.8265 C   0  0  0  0  0  0  0  0  0  0  0  0
   -0.8943    1.0678   -1.7861 C   0  0  0  0  0  0  0  0  0  0  0  0
    3.5899    4.5763    0.2243 C   0  0  0  0  0  0  0  0  0  0  0  0
   -5.0173    0.2011   -0.2081 C   0  0  0  0  0  0  0  0  0  0  0  0
   -5.5748   -0.8428    0.5302 C   0  0  0  0  0  0  0  0  0  0  0  0
   -5.7234    1.3926   -0.3743 C   0  0  0  0  0  0  0  0  0  0  0  0
   -6.8385   -0.6953    1.1021 C   0  0  0  0  0  0  0  0  0  0  0  0
   -6.9870    1.5400    0.1978 C   0  0  0  0  0  0  0  0  0  0  0  0
   -7.5446    0.4959    0.9360 C   0  0  0  0  0  0  0  0  0  0  0  0
    0.7297   -3.9642    0.6081 H   0  0  0  0  0  0  0  0  0  0  0  0
    2.7651   -5.3913   -0.6468 H   0  0  0  0  0  0  0  0  0  0  0  0
    1.4765   -4.5980   -1.5767 H   0  0  0  0  0  0  0  0  0  0  0  0
    1.9365   -1.8173   -1.9906 H   0  0  0  0  0  0  0  0  0  0  0  0
    3.3633   -1.2827   -1.0596 H   0  0  0  0  0  0  0  0  0  0  0  0
    3.4600   -3.5945   -2.5333 H   0  0  0  0  0  0  0  0  0  0  0  0
    4.2450   -3.4973   -0.9479 H   0  0  0  0  0  0  0  0  0  0  0  0
    1.3655    0.0424   -0.9460 H   0  0  0  0  0  0  0  0  0  0  0  0
    2.2357    0.9367    1.8368 H   0  0  0  0  0  0  0  0  0  0  0  0
    3.3099    0.3748    0.5734 H   0  0  0  0  0  0  0  0  0  0  0  0
   -0.3600    0.4870    1.3897 H   0  0  0  0  0  0  0  0  0  0  0  0
   -0.9908   -0.8176   -0.7598 H   0  0  0  0  0  0  0  0  0  0  0  0
    1.4702    2.8218    0.3406 H   0  0  0  0  0  0  0  0  0  0  0  0
    2.5635    2.2466   -0.9156 H   0  0  0  0  0  0  0  0  0  0  0  0
   -2.5638   -0.0541    1.0308 H   0  0  0  0  0  0  0  0  0  0  0  0
   -2.6162    1.5491    0.3115 H   0  0  0  0  0  0  0  0  0  0  0  0
    4.5031    2.6546    0.5969 H   0  0  0  0  0  0  0  0  0  0  0  0
    3.4071    3.1907    1.8678 H   0  0  0  0  0  0  0  0  0  0  0  0
   -3.6294    0.6048   -1.7678 H   0  0  0  0  0  0  0  0  0  0  0  0
   -3.5098   -1.0092   -1.1128 H   0  0  0  0  0  0  0  0  0  0  0  0
    2.6380    5.0846    0.4112 H   0  0  0  0  0  0  0  0  0  0  0  0
    3.7506    4.5543   -0.8589 H   0  0  0  0  0  0  0  0  0  0  0  0
    2.7281   -5.1191    3.1046 H   0  0  0  0  0  0  0  0  0  0  0  0
    5.5597    4.8784    0.6692 H   0  0  0  0  0  0  0  0  0  0  0  0
    4.7191    6.2579    0.4462 H   0  0  0  0  0  0  0  0  0  0  0  0
   -5.0334   -1.7748    0.6686 H   0  0  0  0  0  0  0  0  0  0  0  0
   -5.2985    2.2139   -0.9453 H   0  0  0  0  0  0  0  0  0  0  0  0
   -1.0231    0.8947   -3.7228 H   0  0  0  0  0  0  0  0  0  0  0  0
   -7.2723   -1.5079    1.6775 H   0  0  0  0  0  0  0  0  0  0  0  0
   -7.5366    2.4678    0.0690 H   0  0  0  0  0  0  0  0  0  0  0  0
   -8.5283    0.6108    1.3816 H   0  0  0  0  0  0  0  0  0  0  0  0
  1 14  2  0  0  0  0
  2 18  1  0  0  0  0
  2 52  1  0  0  0  0
  3 18  2  0  0  0  0
  4 22  1  0  0  0  0
  4 57  1  0  0  0  0
  5 22  2  0  0  0  0
  6  9  1  0  0  0  0
  6 11  1  0  0  0  0
  6 14  1  0  0  0  0
  7 13  1  0  0  0  0
  7 16  1  0  0  0  0
  7 40  1  0  0  0  0
  8 23  1  0  0  0  0
  8 53  1  0  0  0  0
  8 54  1  0  0  0  0
  9 10  1  0  0  0  0
  9 18  1  0  0  0  0
  9 30  1  1  0  0  0
 10 12  1  0  0  0  0
 10 31  1  0  0  0  0
 10 32  1  0  0  0  0
 11 12  1  0  0  0  0
 11 33  1  0  0  0  0
 11 34  1  0  0  0  0
 12 35  1  0  0  0  0
 12 36  1  0  0  0  0
 13 14  1  0  0  0  0
 13 15  1  0  0  0  0
 13 37  1  6  0  0  0
 15 17  1  0  0  0  0
 15 38  1  0  0  0  0
 15 39  1  0  0  0  0
 16 19  1  0  0  0  0
 16 22  1  0  0  0  0
 16 41  1  6  0  0  0
 17 20  1  0  0  0  0
 17 42  1  0  0  0  0
 17 43  1  0  0  0  0
 19 21  1  0  0  0  0
 19 44  1  0  0  0  0
 19 45  1  0  0  0  0
 20 23  1  0  0  0  0
 20 46  1  0  0  0  0
 20 47  1  0  0  0  0
 21 24  1  0  0  0  0
 21 48  1  0  0  0  0
 21 49  1  0  0  0  0
 23 50  1  0  0  0  0
 23 51  1  0  0  0  0
 24 25  2  0  0  0  0
 24 26  1  0  0  0  0
 25 27  1  0  0  0  0
 25 55  1  0  0  0  0
 26 28  2  0  0  0  0
 26 56  1  0  0  0  0
 27 29  2  0  0  0  0
 27 58  1  0  0  0  0
 28 29  1  0  0  0  0
 28 59  1  0  0  0  0
 29 60  1  0  0  0  0
M  END
