DB00488
 OpenBabel07062211533D

 33 33  0  0  0  0  0  0  0  0999 V2000
    2.7027    0.0044   -0.0056 N   0  0  0  0  0  0  0  0  0  0  0  0
   -1.3622    2.3426    0.0042 N   0  0  0  0  0  0  0  0  0  0  0  0
   -1.3547   -2.3467   -0.0055 N   0  0  0  0  0  0  0  0  0  0  0  0
    0.6859    1.2009   -0.0017 N   0  0  0  0  0  0  0  0  0  0  0  0
    0.6897   -1.1986   -0.0065 N   0  0  0  0  0  0  0  0  0  0  0  0
   -1.3902   -0.0022   -0.0019 N   0  0  0  0  0  0  0  0  0  0  0  0
    1.3079    0.0021   -0.0047 C   0  0  0  0  0  0  0  0  0  0  0  0
   -0.6545    1.1211   -0.0003 C   0  0  0  0  0  0  0  0  0  0  0  0
   -0.6510   -1.1230   -0.0047 C   0  0  0  0  0  0  0  0  0  0  0  0
    3.4502    1.2553   -0.0035 C   0  0  0  0  0  0  0  0  0  0  0  0
    3.4543   -1.2443    0.0052 C   0  0  0  0  0  0  0  0  0  0  0  0
   -0.6483    3.6031    0.0071 C   0  0  0  0  0  0  0  0  0  0  0  0
   -2.8110    2.3497   -0.0080 C   0  0  0  0  0  0  0  0  0  0  0  0
   -0.6366   -3.6050   -0.0080 C   0  0  0  0  0  0  0  0  0  0  0  0
   -2.8033   -2.3588    0.0104 C   0  0  0  0  0  0  0  0  0  0  0  0
    4.5326    1.0896   -0.0164 H   0  0  0  0  0  0  0  0  0  0  0  0
    3.2198    1.8388    0.8946 H   0  0  0  0  0  0  0  0  0  0  0  0
    3.2022    1.8532   -0.8873 H   0  0  0  0  0  0  0  0  0  0  0  0
    3.2203   -1.8257    0.9039 H   0  0  0  0  0  0  0  0  0  0  0  0
    4.5362   -1.0751   -0.0015 H   0  0  0  0  0  0  0  0  0  0  0  0
    3.2133   -1.8459   -0.8782 H   0  0  0  0  0  0  0  0  0  0  0  0
   -1.3287    4.4611    0.0209 H   0  0  0  0  0  0  0  0  0  0  0  0
   -0.0254    3.6978   -0.8891 H   0  0  0  0  0  0  0  0  0  0  0  0
   -0.0079    3.6847    0.8923 H   0  0  0  0  0  0  0  0  0  0  0  0
   -3.2094    1.8353    0.8736 H   0  0  0  0  0  0  0  0  0  0  0  0
   -3.1937    1.8558   -0.9080 H   0  0  0  0  0  0  0  0  0  0  0  0
   -3.2173    3.3667    0.0006 H   0  0  0  0  0  0  0  0  0  0  0  0
   -0.0110   -3.6962    0.8870 H   0  0  0  0  0  0  0  0  0  0  0  0
    0.0018   -3.6861   -0.8947 H   0  0  0  0  0  0  0  0  0  0  0  0
   -1.3142   -4.4653   -0.0184 H   0  0  0  0  0  0  0  0  0  0  0  0
   -3.1856   -1.8652    0.9108 H   0  0  0  0  0  0  0  0  0  0  0  0
   -3.2064   -3.3773    0.0040 H   0  0  0  0  0  0  0  0  0  0  0  0
   -3.2056   -1.8469   -0.8708 H   0  0  0  0  0  0  0  0  0  0  0  0
  1  7  1  0  0  0  0
  1 10  1  0  0  0  0
  1 11  1  0  0  0  0
  2  8  1  0  0  0  0
  2 12  1  0  0  0  0
  2 13  1  0  0  0  0
  3  9  1  0  0  0  0
  3 14  1  0  0  0  0
  3 15  1  0  0  0  0
  4  7  2  0  0  0  0
  4  8  1  0  0  0  0
  5  7  1  0  0  0  0
  5  9  2  0  0  0  0
  6  8  2  0  0  0  0
  6  9  1  0  0  0  0
 10 16  1  0  0  0  0
 10 17  1  0  0  0  0
 10 18  1  0  0  0  0
 11 19  1  0  0  0  0
 11 20  1  0  0  0  0
 11 21  1  0  0  0  0
 12 22  1  0  0  0  0
 12 23  1  0  0  0  0
 12 24  1  0  0  0  0
 13 25  1  0  0  0  0
 13 26  1  0  0  0  0
 13 27  1  0  0  0  0
 14 28  1  0  0  0  0
 14 29  1  0  0  0  0
 14 30  1  0  0  0  0
 15 31  1  0  0  0  0
 15 32  1  0  0  0  0
 15 33  1  0  0  0  0
M  END
