DB00404
 OpenBabel07062211533D

 35 38  0  0  1  0  0  0  0  0999 V2000
   -0.2497   -4.2017   -1.9110 Cl  0  0  0  0  0  0  0  0  0  0  0  0
    2.1004    0.8823    0.0431 N   0  0  0  0  0  0  0  0  0  0  0  0
   -0.6215    1.9920   -0.7802 N   0  0  0  0  0  0  0  0  0  0  0  0
    2.5447    3.0340    0.2102 N   0  0  0  0  0  0  0  0  0  0  0  0
    3.4861    2.3441    0.9345 N   0  0  0  0  0  0  0  0  0  0  0  0
    1.4846   -0.3267   -0.3493 C   0  0  0  0  0  0  0  0  0  0  0  0
    0.1313   -0.3793   -0.7373 C   0  0  0  0  0  0  0  0  0  0  0  0
    1.7372    2.1532   -0.3418 C   0  0  1  0  0  0  0  0  0  0  0  0
   -0.8414    0.7458   -0.5296 C   0  0  0  0  0  0  0  0  0  0  0  0
    0.6575    2.4138   -1.3181 C   0  0  0  0  0  0  0  0  0  0  0  0
    3.2262    1.0633    0.8041 C   0  0  0  0  0  0  0  0  0  0  0  0
    2.2640   -1.4944   -0.3839 C   0  0  0  0  0  0  0  0  0  0  0  0
   -0.3867   -1.5866   -1.2383 C   0  0  0  0  0  0  0  0  0  0  0  0
   -2.1804    0.4207    0.0461 C   0  0  0  0  0  0  0  0  0  0  0  0
    1.7242   -2.6893   -0.8604 C   0  0  0  0  0  0  0  0  0  0  0  0
    0.4067   -2.7318   -1.3022 C   0  0  0  0  0  0  0  0  0  0  0  0
    3.9625    0.0177    1.5449 C   0  0  0  0  0  0  0  0  0  0  0  0
   -2.3078   -0.6523    0.9176 C   0  0  0  0  0  0  0  0  0  0  0  0
   -3.2792    1.1963   -0.2976 C   0  0  0  0  0  0  0  0  0  0  0  0
   -3.5584   -0.9558    1.4556 C   0  0  0  0  0  0  0  0  0  0  0  0
   -4.5298    0.8928    0.2406 C   0  0  0  0  0  0  0  0  0  0  0  0
   -4.6693   -0.1833    1.1172 C   0  0  0  0  0  0  0  0  0  0  0  0
    0.6077    3.4895   -1.5215 H   0  0  0  0  0  0  0  0  0  0  0  0
    0.8643    1.9313   -2.2810 H   0  0  0  0  0  0  0  0  0  0  0  0
    3.3230   -1.5205   -0.1711 H   0  0  0  0  0  0  0  0  0  0  0  0
   -1.4171   -1.6431   -1.5854 H   0  0  0  0  0  0  0  0  0  0  0  0
    2.3560   -3.5727   -0.9116 H   0  0  0  0  0  0  0  0  0  0  0  0
    4.7362   -0.4425    0.9239 H   0  0  0  0  0  0  0  0  0  0  0  0
    4.4852    0.4759    2.3934 H   0  0  0  0  0  0  0  0  0  0  0  0
    3.3050   -0.7428    1.9752 H   0  0  0  0  0  0  0  0  0  0  0  0
   -1.4603   -1.2498    1.2397 H   0  0  0  0  0  0  0  0  0  0  0  0
   -3.1975    2.0331   -0.9855 H   0  0  0  0  0  0  0  0  0  0  0  0
   -3.6658   -1.7876    2.1459 H   0  0  0  0  0  0  0  0  0  0  0  0
   -5.3953    1.4930   -0.0241 H   0  0  0  0  0  0  0  0  0  0  0  0
   -5.6426   -0.4186    1.5376 H   0  0  0  0  0  0  0  0  0  0  0  0
  1 16  1  0  0  0  0
  2  6  1  0  0  0  0
  2  8  1  0  0  0  0
  2 11  2  0  0  0  0
  3  9  2  0  0  0  0
  3 10  1  0  0  0  0
  4  5  2  0  0  0  0
  5 11  1  0  0  0  0
  6  7  2  0  0  0  0
  6 12  1  0  0  0  0
  7  9  1  0  0  0  0
  7 13  1  0  0  0  0
  8  4  1  6  0  0  0
  8 10  1  0  0  0  0
  9 14  1  0  0  0  0
 10 23  1  0  0  0  0
 10 24  1  0  0  0  0
 11 17  1  0  0  0  0
 12 15  2  0  0  0  0
 12 25  1  0  0  0  0
 13 16  2  0  0  0  0
 13 26  1  0  0  0  0
 14 18  2  0  0  0  0
 14 19  1  0  0  0  0
 15 16  1  0  0  0  0
 15 27  1  0  0  0  0
 17 28  1  0  0  0  0
 17 29  1  0  0  0  0
 17 30  1  0  0  0  0
 18 20  1  0  0  0  0
 18 31  1  0  0  0  0
 19 21  2  0  0  0  0
 19 32  1  0  0  0  0
 20 22  2  0  0  0  0
 20 33  1  0  0  0  0
 21 22  1  0  0  0  0
 21 34  1  0  0  0  0
 22 35  1  0  0  0  0
M  END
