DB00829
 OpenBabel07062211533D

 33 35  0  0  0  0  0  0  0  0999 V2000
    0.3023    4.2911   -1.6634 Cl  0  0  0  0  0  0  0  0  0  0  0  0
    2.3444   -3.2656    0.4073 O   0  0  0  0  0  0  0  0  0  0  0  0
    2.3200   -0.9358    0.4473 N   0  0  0  0  0  0  0  0  0  0  0  0
   -0.2464   -1.8918   -0.8648 N   0  0  0  0  0  0  0  0  0  0  0  0
    0.4796    0.4376   -0.5523 C   0  0  0  0  0  0  0  0  0  0  0  0
    1.7858    0.3084   -0.0359 C   0  0  0  0  0  0  0  0  0  0  0  0
   -0.5124   -0.6782   -0.5173 C   0  0  0  0  0  0  0  0  0  0  0  0
    1.1023   -2.1872   -1.2999 C   0  0  0  0  0  0  0  0  0  0  0  0
    1.9635   -2.1899   -0.0621 C   0  0  0  0  0  0  0  0  0  0  0  0
   -1.8968   -0.3975   -0.0384 C   0  0  0  0  0  0  0  0  0  0  0  0
    0.0354    1.6682   -1.0695 C   0  0  0  0  0  0  0  0  0  0  0  0
    2.5845    1.4684    0.0128 C   0  0  0  0  0  0  0  0  0  0  0  0
    3.3450   -0.8855    1.4899 C   0  0  0  0  0  0  0  0  0  0  0  0
    0.8592    2.7890   -1.0366 C   0  0  0  0  0  0  0  0  0  0  0  0
    2.1287    2.6920   -0.4841 C   0  0  0  0  0  0  0  0  0  0  0  0
   -2.1079    0.6012    0.9043 C   0  0  0  0  0  0  0  0  0  0  0  0
   -2.9604   -1.1374   -0.5406 C   0  0  0  0  0  0  0  0  0  0  0  0
   -3.4026    0.8640    1.3520 C   0  0  0  0  0  0  0  0  0  0  0  0
   -4.2550   -0.8744   -0.0929 C   0  0  0  0  0  0  0  0  0  0  0  0
   -4.4760    0.1263    0.8534 C   0  0  0  0  0  0  0  0  0  0  0  0
    1.4831   -1.5039   -2.0670 H   0  0  0  0  0  0  0  0  0  0  0  0
    1.1240   -3.1895   -1.7420 H   0  0  0  0  0  0  0  0  0  0  0  0
   -0.9586    1.7561   -1.5041 H   0  0  0  0  0  0  0  0  0  0  0  0
    3.5980    1.4408    0.4053 H   0  0  0  0  0  0  0  0  0  0  0  0
    3.0866   -0.1315    2.2400 H   0  0  0  0  0  0  0  0  0  0  0  0
    4.3117   -0.6590    1.0298 H   0  0  0  0  0  0  0  0  0  0  0  0
    3.4328   -1.8497    1.9995 H   0  0  0  0  0  0  0  0  0  0  0  0
    2.7857    3.5570   -0.4418 H   0  0  0  0  0  0  0  0  0  0  0  0
   -1.2932    1.1719    1.3401 H   0  0  0  0  0  0  0  0  0  0  0  0
   -2.8141   -1.9153   -1.2845 H   0  0  0  0  0  0  0  0  0  0  0  0
   -3.5742    1.6379    2.0946 H   0  0  0  0  0  0  0  0  0  0  0  0
   -5.0914   -1.4477   -0.4822 H   0  0  0  0  0  0  0  0  0  0  0  0
   -5.4838    0.3300    1.2031 H   0  0  0  0  0  0  0  0  0  0  0  0
  1 14  1  0  0  0  0
  2  9  2  0  0  0  0
  3  6  1  0  0  0  0
  3  9  1  0  0  0  0
  3 13  1  0  0  0  0
  4  7  2  0  0  0  0
  4  8  1  0  0  0  0
  5  6  2  0  0  0  0
  5  7  1  0  0  0  0
  5 11  1  0  0  0  0
  6 12  1  0  0  0  0
  7 10  1  0  0  0  0
  8  9  1  0  0  0  0
  8 21  1  0  0  0  0
  8 22  1  0  0  0  0
 10 16  2  0  0  0  0
 10 17  1  0  0  0  0
 11 14  2  0  0  0  0
 11 23  1  0  0  0  0
 12 15  2  0  0  0  0
 12 24  1  0  0  0  0
 13 25  1  0  0  0  0
 13 26  1  0  0  0  0
 13 27  1  0  0  0  0
 14 15  1  0  0  0  0
 15 28  1  0  0  0  0
 16 18  1  0  0  0  0
 16 29  1  0  0  0  0
 17 19  2  0  0  0  0
 17 30  1  0  0  0  0
 18 20  2  0  0  0  0
 18 31  1  0  0  0  0
 19 20  1  0  0  0  0
 19 32  1  0  0  0  0
 20 33  1  0  0  0  0
M  END
