DB00604
 OpenBabel07062211533D

 61 63  0  0  1  0  0  0  0  0999 V2000
    8.2387   -2.2844   -0.0074 Cl  0  0  0  0  0  0  0  0  0  0  0  0
   -8.7875   -2.3607   -0.2153 F   0  0  0  0  0  0  0  0  0  0  0  0
    0.3310   -1.8186    1.6202 O   0  0  0  0  0  0  0  0  0  0  0  0
   -5.1349    1.6797    0.5485 O   0  0  0  0  0  0  0  0  0  0  0  0
    3.2293   -2.4108   -1.7795 O   0  0  0  0  0  0  0  0  0  0  0  0
    3.5183    1.2196   -0.1133 O   0  0  0  0  0  0  0  0  0  0  0  0
   -1.1218    0.8605   -0.4908 N   0  0  0  0  0  0  0  0  0  0  0  0
    2.0851   -0.9347   -0.4054 N   0  0  0  0  0  0  0  0  0  0  0  0
    8.1842    0.6430    0.8217 N   0  0  0  0  0  0  0  0  0  0  0  0
    0.7542   -1.3931   -0.7397 C   0  0  1  0  0  0  0  0  0  0  0  0
   -0.2132   -1.2385    0.4397 C   0  0  2  0  0  0  0  0  0  0  0  0
    0.2052   -0.6446   -1.9567 C   0  0  0  0  0  0  0  0  0  0  0  0
   -0.5580    0.2290    0.7088 C   0  0  0  0  0  0  0  0  0  0  0  0
   -0.1851    0.8008   -1.6215 C   0  0  0  0  0  0  0  0  0  0  0  0
   -1.5017    2.2450   -0.2116 C   0  0  0  0  0  0  0  0  0  0  0  0
   -2.8182    2.2879    0.5574 C   0  0  0  0  0  0  0  0  0  0  0  0
    3.2231   -1.4928   -0.9635 C   0  0  0  0  0  0  0  0  0  0  0  0
   -3.9430    1.6210   -0.2228 C   0  0  0  0  0  0  0  0  0  0  0  0
    0.2445   -3.2360    1.5900 C   0  0  0  0  0  0  0  0  0  0  0  0
    4.5156   -0.9282   -0.4966 C   0  0  0  0  0  0  0  0  0  0  0  0
    4.6092    0.4031   -0.0907 C   0  0  0  0  0  0  0  0  0  0  0  0
    5.6443   -1.7475   -0.4671 C   0  0  0  0  0  0  0  0  0  0  0  0
   -6.0448    0.6724    0.3586 C   0  0  0  0  0  0  0  0  0  0  0  0
    5.8315    0.9152    0.3447 C   0  0  0  0  0  0  0  0  0  0  0  0
    6.8664   -1.2354   -0.0311 C   0  0  0  0  0  0  0  0  0  0  0  0
    6.9601    0.0960    0.3747 C   0  0  0  0  0  0  0  0  0  0  0  0
   -6.1415    0.0455   -0.8840 C   0  0  0  0  0  0  0  0  0  0  0  0
   -6.8747    0.2748    1.4071 C   0  0  0  0  0  0  0  0  0  0  0  0
    3.7074    2.5652    0.3193 C   0  0  0  0  0  0  0  0  0  0  0  0
   -7.0676   -0.9795   -1.0776 C   0  0  0  0  0  0  0  0  0  0  0  0
   -7.8008   -0.7501    1.2132 C   0  0  0  0  0  0  0  0  0  0  0  0
   -7.8973   -1.3773   -0.0289 C   0  0  0  0  0  0  0  0  0  0  0  0
    0.8373   -2.4518   -1.0104 H   0  0  0  0  0  0  0  0  0  0  0  0
   -1.1570   -1.7476    0.1938 H   0  0  0  0  0  0  0  0  0  0  0  0
   -0.6831   -1.1721   -2.3284 H   0  0  0  0  0  0  0  0  0  0  0  0
    0.9369   -0.6426   -2.7736 H   0  0  0  0  0  0  0  0  0  0  0  0
   -1.2744    0.2444    1.5381 H   0  0  0  0  0  0  0  0  0  0  0  0
    0.3259    0.7700    1.0722 H   0  0  0  0  0  0  0  0  0  0  0  0
   -0.6518    1.2361   -2.5137 H   0  0  0  0  0  0  0  0  0  0  0  0
    0.7175    1.3884   -1.4089 H   0  0  0  0  0  0  0  0  0  0  0  0
   -0.7173    2.7807    0.3379 H   0  0  0  0  0  0  0  0  0  0  0  0
   -1.6537    2.7946   -1.1500 H   0  0  0  0  0  0  0  0  0  0  0  0
    2.1700   -0.1756    0.2624 H   0  0  0  0  0  0  0  0  0  0  0  0
   -2.7316    1.8379    1.5527 H   0  0  0  0  0  0  0  0  0  0  0  0
   -3.0896    3.3348    0.7445 H   0  0  0  0  0  0  0  0  0  0  0  0
   -4.1049    2.1439   -1.1727 H   0  0  0  0  0  0  0  0  0  0  0  0
   -3.6636    0.5798   -0.4236 H   0  0  0  0  0  0  0  0  0  0  0  0
   -0.7873   -3.5668    1.4352 H   0  0  0  0  0  0  0  0  0  0  0  0
    0.5782   -3.6129    2.5612 H   0  0  0  0  0  0  0  0  0  0  0  0
    0.9011   -3.6607    0.8263 H   0  0  0  0  0  0  0  0  0  0  0  0
    5.5746   -2.7878   -0.7774 H   0  0  0  0  0  0  0  0  0  0  0  0
    5.9657    1.9411    0.6721 H   0  0  0  0  0  0  0  0  0  0  0  0
   -5.5352    0.3436   -1.7342 H   0  0  0  0  0  0  0  0  0  0  0  0
   -6.8037    0.7596    2.3768 H   0  0  0  0  0  0  0  0  0  0  0  0
    9.0121    0.0626    0.8483 H   0  0  0  0  0  0  0  0  0  0  0  0
    8.2349    1.6106    1.1110 H   0  0  0  0  0  0  0  0  0  0  0  0
    2.7374    3.0669    0.2360 H   0  0  0  0  0  0  0  0  0  0  0  0
    4.4005    3.1068   -0.3333 H   0  0  0  0  0  0  0  0  0  0  0  0
    3.9984    2.6139    1.3742 H   0  0  0  0  0  0  0  0  0  0  0  0
   -7.1480   -1.4641   -2.0462 H   0  0  0  0  0  0  0  0  0  0  0  0
   -8.4471   -1.0598    2.0291 H   0  0  0  0  0  0  0  0  0  0  0  0
  1 25  1  0  0  0  0
  2 32  1  0  0  0  0
  3 11  1  0  0  0  0
  3 19  1  0  0  0  0
  4 18  1  0  0  0  0
  4 23  1  0  0  0  0
  5 17  2  0  0  0  0
  6 21  1  0  0  0  0
  6 29  1  0  0  0  0
  7 13  1  0  0  0  0
  7 14  1  0  0  0  0
  7 15  1  0  0  0  0
  8 10  1  0  0  0  0
  8 17  1  0  0  0  0
  8 43  1  0  0  0  0
  9 26  1  0  0  0  0
  9 55  1  0  0  0  0
  9 56  1  0  0  0  0
 10 11  1  1  0  0  0
 10 12  1  0  0  0  0
 10 33  1  0  0  0  0
 11 13  1  0  0  0  0
 11 34  1  6  0  0  0
 12 14  1  0  0  0  0
 12 35  1  0  0  0  0
 12 36  1  0  0  0  0
 13 37  1  0  0  0  0
 13 38  1  0  0  0  0
 14 39  1  0  0  0  0
 14 40  1  0  0  0  0
 15 16  1  0  0  0  0
 15 41  1  0  0  0  0
 15 42  1  0  0  0  0
 16 18  1  0  0  0  0
 16 44  1  0  0  0  0
 16 45  1  0  0  0  0
 17 20  1  0  0  0  0
 18 46  1  0  0  0  0
 18 47  1  0  0  0  0
 19 48  1  0  0  0  0
 19 49  1  0  0  0  0
 19 50  1  0  0  0  0
 20 21  2  0  0  0  0
 20 22  1  0  0  0  0
 21 24  1  0  0  0  0
 22 25  2  0  0  0  0
 22 51  1  0  0  0  0
 23 27  2  0  0  0  0
 23 28  1  0  0  0  0
 24 26  2  0  0  0  0
 24 52  1  0  0  0  0
 25 26  1  0  0  0  0
 27 30  1  0  0  0  0
 27 53  1  0  0  0  0
 28 31  2  0  0  0  0
 28 54  1  0  0  0  0
 29 57  1  0  0  0  0
 29 58  1  0  0  0  0
 29 59  1  0  0  0  0
 30 32  2  0  0  0  0
 30 60  1  0  0  0  0
 31 32  1  0  0  0  0
 31 61  1  0  0  0  0
M  END
