DB00900
 OpenBabel07062211533D

 29 31  0  0  1  0  0  0  0  0999 V2000
    1.4530   -0.0663   -0.9789 O   0  0  0  0  0  0  0  0  0  0  0  0
    3.9932   -1.1719   -1.5202 O   0  0  0  0  0  0  0  0  0  0  0  0
   -4.6849   -2.3487    0.6658 O   0  0  0  0  0  0  0  0  0  0  0  0
   -0.7390   -0.2735   -0.1047 N   0  0  0  0  0  0  0  0  0  0  0  0
   -2.7543    1.0227   -0.5321 N   0  0  0  0  0  0  0  0  0  0  0  0
   -1.7411   -2.1654    0.5669 N   0  0  0  0  0  0  0  0  0  0  0  0
   -4.8066   -0.1602   -0.0954 N   0  0  0  0  0  0  0  0  0  0  0  0
    0.3347    0.6626   -0.4414 C   0  0  1  0  0  0  0  0  0  0  0  0
    0.8390    1.4733    0.7478 C   0  0  0  0  0  0  0  0  0  0  0  0
    2.1494    0.8048    1.0944 C   0  0  0  0  0  0  0  0  0  0  0  0
    2.6328    0.3397   -0.2668 C   0  0  1  0  0  0  0  0  0  0  0  0
    3.6169   -0.8115   -0.2004 C   0  0  0  0  0  0  0  0  0  0  0  0
   -2.0736   -0.0658   -0.1606 C   0  0  0  0  0  0  0  0  0  0  0  0
   -0.5838   -1.5652    0.3440 C   0  0  0  0  0  0  0  0  0  0  0  0
   -2.6769   -1.2217    0.2495 C   0  0  0  0  0  0  0  0  0  0  0  0
   -4.1263   -1.3213    0.3012 C   0  0  0  0  0  0  0  0  0  0  0  0
   -4.1282    0.8914   -0.4700 C   0  0  0  0  0  0  0  0  0  0  0  0
   -0.0521    1.3161   -1.2312 H   0  0  0  0  0  0  0  0  0  0  0  0
    0.1429    1.5178    1.5909 H   0  0  0  0  0  0  0  0  0  0  0  0
    1.0356    2.5033    0.4255 H   0  0  0  0  0  0  0  0  0  0  0  0
    2.8572    1.4727    1.5930 H   0  0  0  0  0  0  0  0  0  0  0  0
    1.9592   -0.0496    1.7549 H   0  0  0  0  0  0  0  0  0  0  0  0
    3.0672    1.1745   -0.8314 H   0  0  0  0  0  0  0  0  0  0  0  0
    3.1728   -1.6947    0.2703 H   0  0  0  0  0  0  0  0  0  0  0  0
    4.5180   -0.5316    0.3530 H   0  0  0  0  0  0  0  0  0  0  0  0
    0.3881   -2.0152    0.4944 H   0  0  0  0  0  0  0  0  0  0  0  0
   -2.3207    1.8884   -0.8354 H   0  0  0  0  0  0  0  0  0  0  0  0
    3.1823   -1.4117   -2.0007 H   0  0  0  0  0  0  0  0  0  0  0  0
   -4.6547    1.8070   -0.7825 H   0  0  0  0  0  0  0  0  0  0  0  0
  1  8  1  0  0  0  0
  1 11  1  0  0  0  0
  2 12  1  0  0  0  0
  2 28  1  0  0  0  0
  3 16  2  0  0  0  0
  4  8  1  0  0  0  0
  4 13  1  0  0  0  0
  4 14  2  0  0  0  0
  5 13  2  0  0  0  0
  5 17  1  0  0  0  0
  5 27  1  0  0  0  0
  6 14  1  0  0  0  0
  6 15  2  0  0  0  0
  7 16  1  0  0  0  0
  7 17  2  0  0  0  0
  8  9  1  0  0  0  0
  8 18  1  6  0  0  0
  9 10  1  0  0  0  0
  9 19  1  0  0  0  0
  9 20  1  0  0  0  0
 10 11  1  0  0  0  0
 10 21  1  0  0  0  0
 10 22  1  0  0  0  0
 11 12  1  0  0  0  0
 11 23  1  6  0  0  0
 12 24  1  0  0  0  0
 12 25  1  0  0  0  0
 13 15  1  0  0  0  0
 14 26  1  0  0  0  0
 15 16  1  0  0  0  0
 17 29  1  0  0  0  0
M  END
