DB00359
 OpenBabel07062211533D

 27 28  0  0  0  0  0  0  0  0999 V2000
    0.4357    2.4791   -0.6208 S   0  0  0  0  0  0  0  0  0  0  0  0
   -0.1458    3.7377   -0.1693 O   0  0  0  0  0  0  0  0  0  0  0  0
    0.9807    2.4015   -1.9707 O   0  0  0  0  0  0  0  0  0  0  0  0
    1.6421    2.0091    0.5159 N   0  0  0  0  0  0  0  0  0  0  0  0
   -3.6930   -1.7532    0.0115 N   0  0  0  0  0  0  0  0  0  0  0  0
    1.8266   -0.1265    1.5006 N   0  0  0  0  0  0  0  0  0  0  0  0
    2.8520    0.3394   -0.6298 N   0  0  0  0  0  0  0  0  0  0  0  0
   -0.7764    1.2363   -0.4351 C   0  0  0  0  0  0  0  0  0  0  0  0
   -1.8064    1.3995    0.4914 C   0  0  0  0  0  0  0  0  0  0  0  0
   -0.7150    0.0800   -1.2130 C   0  0  0  0  0  0  0  0  0  0  0  0
   -2.7133   -0.7494   -0.1378 C   0  0  0  0  0  0  0  0  0  0  0  0
   -2.7748    0.4066    0.6399 C   0  0  0  0  0  0  0  0  0  0  0  0
   -1.6834   -0.9128   -1.0644 C   0  0  0  0  0  0  0  0  0  0  0  0
    2.1367    0.6599    0.4589 C   0  0  0  0  0  0  0  0  0  0  0  0
    2.3055   -1.3849    1.4142 C   0  0  0  0  0  0  0  0  0  0  0  0
    3.2994   -0.9331   -0.6508 C   0  0  0  0  0  0  0  0  0  0  0  0
    3.0552   -1.8486    0.3525 C   0  0  0  0  0  0  0  0  0  0  0  0
   -1.8703    2.2880    1.1132 H   0  0  0  0  0  0  0  0  0  0  0  0
    0.0779   -0.0693   -1.9404 H   0  0  0  0  0  0  0  0  0  0  0  0
    1.4826    2.3361    1.4778 H   0  0  0  0  0  0  0  0  0  0  0  0
   -3.5715    0.5447    1.3664 H   0  0  0  0  0  0  0  0  0  0  0  0
   -1.6244   -1.8094   -1.6760 H   0  0  0  0  0  0  0  0  0  0  0  0
   -4.4390   -1.6363    0.6841 H   0  0  0  0  0  0  0  0  0  0  0  0
   -3.6477   -2.5924   -0.5510 H   0  0  0  0  0  0  0  0  0  0  0  0
    2.0615   -2.0322    2.2498 H   0  0  0  0  0  0  0  0  0  0  0  0
    3.8789   -1.2063   -1.5262 H   0  0  0  0  0  0  0  0  0  0  0  0
    3.4263   -2.8636    0.3091 H   0  0  0  0  0  0  0  0  0  0  0  0
  1  2  2  0  0  0  0
  1  3  2  0  0  0  0
  1  4  1  0  0  0  0
  1  8  1  0  0  0  0
  4 14  1  0  0  0  0
  4 20  1  0  0  0  0
  5 11  1  0  0  0  0
  5 23  1  0  0  0  0
  5 24  1  0  0  0  0
  6 14  2  0  0  0  0
  6 15  1  0  0  0  0
  7 14  1  0  0  0  0
  7 16  2  0  0  0  0
  8  9  2  0  0  0  0
  8 10  1  0  0  0  0
  9 12  1  0  0  0  0
  9 18  1  0  0  0  0
 10 13  2  0  0  0  0
 10 19  1  0  0  0  0
 11 12  2  0  0  0  0
 11 13  1  0  0  0  0
 12 21  1  0  0  0  0
 13 22  1  0  0  0  0
 15 17  2  0  0  0  0
 15 25  1  0  0  0  0
 16 17  1  0  0  0  0
 16 26  1  0  0  0  0
 17 27  1  0  0  0  0
M  END
