DB00876
 OpenBabel07062211533D

 54 56  0  0  1  0  0  0  0  0999 V2000
    5.6354    0.7441   -1.6772 S   0  0  0  0  0  0  0  0  0  0  0  0
    4.6226   -0.8516    1.4711 O   0  0  0  0  0  0  0  0  0  0  0  0
    3.8915    0.5439    3.1111 O   0  0  0  0  0  0  0  0  0  0  0  0
   -1.0203   -5.9112   -1.7939 O   0  0  0  0  0  0  0  0  0  0  0  0
    1.1298   -6.0638   -1.0728 O   0  0  0  0  0  0  0  0  0  0  0  0
   -0.7205    0.6263    0.8087 N   0  0  0  0  0  0  0  0  0  0  0  0
   -1.0186    2.2574   -0.6688 N   0  0  0  0  0  0  0  0  0  0  0  0
   -1.5864    1.2472   -0.0481 C   0  0  2  0  0  0  0  0  0  0  0  0
   -3.0129    0.7899   -0.2215 C   0  0  0  0  0  0  0  0  0  0  0  0
   -3.9862    1.9720   -0.2163 C   0  0  0  0  0  0  0  0  0  0  0  0
   -1.0327   -0.5167    1.6398 C   0  0  0  0  0  0  0  0  0  0  0  0
    0.4757    1.2820    0.7288 C   0  0  0  0  0  0  0  0  0  0  0  0
   -5.4333    1.4995   -0.3567 C   0  0  0  0  0  0  0  0  0  0  0  0
   -0.7489   -1.8099    0.9246 C   0  0  0  0  0  0  0  0  0  0  0  0
    0.2670    2.2841   -0.1894 C   0  0  0  0  0  0  0  0  0  0  0  0
    1.5747    0.8728    1.4988 C   0  0  0  0  0  0  0  0  0  0  0  0
    2.7687    0.4835    0.9773 C   0  0  0  0  0  0  0  0  0  0  0  0
   -6.4074    2.6658   -0.3117 C   0  0  0  0  0  0  0  0  0  0  0  0
    0.5103   -2.4012    1.0272 C   0  0  0  0  0  0  0  0  0  0  0  0
   -1.7440   -2.4165    0.1581 C   0  0  0  0  0  0  0  0  0  0  0  0
    3.1299    0.4302   -0.4933 C   0  0  0  0  0  0  0  0  0  0  0  0
    0.7743   -3.5992    0.3635 C   0  0  0  0  0  0  0  0  0  0  0  0
   -1.4798   -3.6146   -0.5057 C   0  0  0  0  0  0  0  0  0  0  0  0
   -0.2208   -4.2059   -0.4029 C   0  0  0  0  0  0  0  0  0  0  0  0
    4.2384    1.3729   -0.9121 C   0  0  0  0  0  0  0  0  0  0  0  0
    3.7980    0.0926    1.9801 C   0  0  0  0  0  0  0  0  0  0  0  0
    4.3019    2.7410   -0.7637 C   0  0  0  0  0  0  0  0  0  0  0  0
    0.0549   -5.4553   -1.0946 C   0  0  0  0  0  0  0  0  0  0  0  0
    5.5132    3.2801   -1.2852 C   0  0  0  0  0  0  0  0  0  0  0  0
    6.3296    2.3035   -1.8121 C   0  0  0  0  0  0  0  0  0  0  0  0
   -3.0865    0.2574   -1.1774 H   0  0  0  0  0  0  0  0  0  0  0  0
   -3.3385    0.1019    0.5584 H   0  0  0  0  0  0  0  0  0  0  0  0
   -2.0678   -0.4628    1.9876 H   0  0  0  0  0  0  0  0  0  0  0  0
   -0.4434   -0.4568    2.5623 H   0  0  0  0  0  0  0  0  0  0  0  0
   -3.7449    2.6611   -1.0353 H   0  0  0  0  0  0  0  0  0  0  0  0
   -3.8731    2.5378    0.7174 H   0  0  0  0  0  0  0  0  0  0  0  0
   -5.5582    0.9603   -1.3031 H   0  0  0  0  0  0  0  0  0  0  0  0
   -5.6780    0.7993    0.4507 H   0  0  0  0  0  0  0  0  0  0  0  0
    0.9710    3.0288   -0.5318 H   0  0  0  0  0  0  0  0  0  0  0  0
    1.4308    0.8473    2.5769 H   0  0  0  0  0  0  0  0  0  0  0  0
   -6.3305    3.2050    0.6379 H   0  0  0  0  0  0  0  0  0  0  0  0
   -7.4356    2.3052   -0.4154 H   0  0  0  0  0  0  0  0  0  0  0  0
   -6.2114    3.3719   -1.1250 H   0  0  0  0  0  0  0  0  0  0  0  0
    1.2894   -1.9620    1.6411 H   0  0  0  0  0  0  0  0  0  0  0  0
   -2.7373   -1.9892    0.0788 H   0  0  0  0  0  0  0  0  0  0  0  0
    2.2644    0.6473   -1.1291 H   0  0  0  0  0  0  0  0  0  0  0  0
    3.3919   -0.6067   -0.7438 H   0  0  0  0  0  0  0  0  0  0  0  0
    1.7600   -4.0468    0.4613 H   0  0  0  0  0  0  0  0  0  0  0  0
   -2.2844   -4.0552   -1.0879 H   0  0  0  0  0  0  0  0  0  0  0  0
    3.5216    3.3332   -0.3036 H   0  0  0  0  0  0  0  0  0  0  0  0
    5.7729    4.3306   -1.2742 H   0  0  0  0  0  0  0  0  0  0  0  0
    7.3005    2.4313   -2.2696 H   0  0  0  0  0  0  0  0  0  0  0  0
    5.3076   -1.1278    2.1166 H   0  0  0  0  0  0  0  0  0  0  0  0
   -0.8245   -6.7540   -2.2560 H   0  0  0  0  0  0  0  0  0  0  0  0
  1 25  1  0  0  0  0
  1 30  1  0  0  0  0
  2 26  1  0  0  0  0
  2 53  1  0  0  0  0
  3 26  2  0  0  0  0
  4 28  1  0  0  0  0
  4 54  1  0  0  0  0
  5 28  2  0  0  0  0
  6  8  1  0  0  0  0
  6 11  1  0  0  0  0
  6 12  2  0  0  0  0
  7  8  1  0  0  0  0
  7 15  2  0  0  0  0
  8  9  1  1  0  0  0
  9 10  1  0  0  0  0
  9 31  1  0  0  0  0
  9 32  1  0  0  0  0
 10 13  1  0  0  0  0
 10 35  1  0  0  0  0
 10 36  1  0  0  0  0
 11 14  1  0  0  0  0
 11 33  1  0  0  0  0
 11 34  1  0  0  0  0
 12 15  1  0  0  0  0
 12 16  1  0  0  0  0
 13 18  1  0  0  0  0
 13 37  1  0  0  0  0
 13 38  1  0  0  0  0
 14 19  2  0  0  0  0
 14 20  1  0  0  0  0
 15 39  1  0  0  0  0
 16 17  2  0  0  0  0
 16 40  1  0  0  0  0
 17 21  1  0  0  0  0
 17 26  1  0  0  0  0
 18 41  1  0  0  0  0
 18 42  1  0  0  0  0
 18 43  1  0  0  0  0
 19 22  1  0  0  0  0
 19 44  1  0  0  0  0
 20 23  2  0  0  0  0
 20 45  1  0  0  0  0
 21 25  1  0  0  0  0
 21 46  1  0  0  0  0
 21 47  1  0  0  0  0
 22 24  2  0  0  0  0
 22 48  1  0  0  0  0
 23 24  1  0  0  0  0
 23 49  1  0  0  0  0
 24 28  1  0  0  0  0
 25 27  2  0  0  0  0
 27 29  1  0  0  0  0
 27 50  1  0  0  0  0
 29 30  2  0  0  0  0
 29 51  1  0  0  0  0
 30 52  1  0  0  0  0
M  END
