DB00244
 OpenBabel07062211533D

 18 18  0  0  0  0  0  0  0  0999 V2000
   -1.8115   -2.0866    0.0195 O   0  0  0  0  0  0  0  0  0  0  0  0
   -2.2998    1.9525    0.4388 O   0  0  0  0  0  0  0  0  0  0  0  0
   -3.2384    0.1811   -0.6322 O   0  0  0  0  0  0  0  0  0  0  0  0
    2.6065    1.2933   -0.0444 N   0  0  0  0  0  0  0  0  0  0  0  0
   -0.9132    0.1360   -0.0708 C   0  0  0  0  0  0  0  0  0  0  0  0
    1.4833    0.4405   -0.0275 C   0  0  0  0  0  0  0  0  0  0  0  0
    0.1979    0.9793   -0.0856 C   0  0  0  0  0  0  0  0  0  0  0  0
   -0.7388   -1.2460    0.0020 C   0  0  0  0  0  0  0  0  0  0  0  0
    1.6577   -0.9414    0.0452 C   0  0  0  0  0  0  0  0  0  0  0  0
    0.5466   -1.7847    0.0599 C   0  0  0  0  0  0  0  0  0  0  0  0
   -2.2469    0.7182   -0.1308 C   0  0  0  0  0  0  0  0  0  0  0  0
    0.0818    2.0587   -0.1551 H   0  0  0  0  0  0  0  0  0  0  0  0
    2.6542   -1.3733    0.0907 H   0  0  0  0  0  0  0  0  0  0  0  0
    0.6973   -2.8594    0.1171 H   0  0  0  0  0  0  0  0  0  0  0  0
    3.5386    0.9035    0.0003 H   0  0  0  0  0  0  0  0  0  0  0  0
    2.4809    2.2956   -0.0943 H   0  0  0  0  0  0  0  0  0  0  0  0
   -1.4950   -3.0046    0.0729 H   0  0  0  0  0  0  0  0  0  0  0  0
   -3.2012    2.3371    0.3942 H   0  0  0  0  0  0  0  0  0  0  0  0
  1  8  1  0  0  0  0
  1 17  1  0  0  0  0
  2 11  1  0  0  0  0
  2 18  1  0  0  0  0
  3 11  2  0  0  0  0
  4  6  1  0  0  0  0
  4 15  1  0  0  0  0
  4 16  1  0  0  0  0
  5  7  2  0  0  0  0
  5  8  1  0  0  0  0
  5 11  1  0  0  0  0
  6  7  1  0  0  0  0
  6  9  2  0  0  0  0
  7 12  1  0  0  0  0
  8 10  2  0  0  0  0
  9 10  1  0  0  0  0
  9 13  1  0  0  0  0
 10 14  1  0  0  0  0
M  END
