DB00461
 OpenBabel07062211533D

 33 34  0  0  0  0  0  0  0  0999 V2000
   -5.1348    0.4807   -0.5442 O   0  0  0  0  0  0  0  0  0  0  0  0
    5.3120   -0.2427    1.2461 O   0  0  0  0  0  0  0  0  0  0  0  0
    1.1396    0.5790    0.6616 C   0  0  0  0  0  0  0  0  0  0  0  0
    2.5679    0.3229    1.0052 C   0  0  0  0  0  0  0  0  0  0  0  0
   -1.1401   -0.2336    0.4143 C   0  0  0  0  0  0  0  0  0  0  0  0
   -1.5510    1.0607    0.0157 C   0  0  0  0  0  0  0  0  0  0  0  0
    0.2088   -0.4578    0.7342 C   0  0  0  0  0  0  0  0  0  0  0  0
    3.3897   -0.1100   -0.2148 C   0  0  0  0  0  0  0  0  0  0  0  0
    0.7355    1.8518    0.2696 C   0  0  0  0  0  0  0  0  0  0  0  0
   -0.6006    2.0925   -0.0515 C   0  0  0  0  0  0  0  0  0  0  0  0
   -2.0904   -1.2655    0.4819 C   0  0  0  0  0  0  0  0  0  0  0  0
   -2.9001    1.2848   -0.3040 C   0  0  0  0  0  0  0  0  0  0  0  0
   -3.8307    0.2477   -0.2319 C   0  0  0  0  0  0  0  0  0  0  0  0
   -3.4267   -1.0250    0.1606 C   0  0  0  0  0  0  0  0  0  0  0  0
    4.8451   -0.3880    0.1176 C   0  0  0  0  0  0  0  0  0  0  0  0
    5.7081   -0.8578   -1.0247 C   0  0  0  0  0  0  0  0  0  0  0  0
   -6.0329   -0.6238   -0.4478 C   0  0  0  0  0  0  0  0  0  0  0  0
    3.0103    1.2232    1.4521 H   0  0  0  0  0  0  0  0  0  0  0  0
    2.6307   -0.4442    1.7886 H   0  0  0  0  0  0  0  0  0  0  0  0
    0.5347   -1.4507    1.0403 H   0  0  0  0  0  0  0  0  0  0  0  0
    3.3649    0.6725   -0.9823 H   0  0  0  0  0  0  0  0  0  0  0  0
    2.9650   -1.0240   -0.6466 H   0  0  0  0  0  0  0  0  0  0  0  0
    1.4515    2.6671    0.2077 H   0  0  0  0  0  0  0  0  0  0  0  0
   -0.8939    3.0951   -0.3559 H   0  0  0  0  0  0  0  0  0  0  0  0
   -1.7959   -2.2680    0.7863 H   0  0  0  0  0  0  0  0  0  0  0  0
   -3.2325    2.2744   -0.6123 H   0  0  0  0  0  0  0  0  0  0  0  0
   -4.0960   -1.8751    0.2384 H   0  0  0  0  0  0  0  0  0  0  0  0
    6.7300   -1.0218   -0.6721 H   0  0  0  0  0  0  0  0  0  0  0  0
    5.3150   -1.7985   -1.4179 H   0  0  0  0  0  0  0  0  0  0  0  0
    5.7230   -0.0972   -1.8092 H   0  0  0  0  0  0  0  0  0  0  0  0
   -7.0255   -0.2588   -0.7316 H   0  0  0  0  0  0  0  0  0  0  0  0
   -6.1099   -0.9914    0.5811 H   0  0  0  0  0  0  0  0  0  0  0  0
   -5.7709   -1.4186   -1.1544 H   0  0  0  0  0  0  0  0  0  0  0  0
  1 13  1  0  0  0  0
  1 17  1  0  0  0  0
  2 15  2  0  0  0  0
  3  4  1  0  0  0  0
  3  7  2  0  0  0  0
  3  9  1  0  0  0  0
  4  8  1  0  0  0  0
  4 18  1  0  0  0  0
  4 19  1  0  0  0  0
  5  6  2  0  0  0  0
  5  7  1  0  0  0  0
  5 11  1  0  0  0  0
  6 10  1  0  0  0  0
  6 12  1  0  0  0  0
  7 20  1  0  0  0  0
  8 15  1  0  0  0  0
  8 21  1  0  0  0  0
  8 22  1  0  0  0  0
  9 10  2  0  0  0  0
  9 23  1  0  0  0  0
 10 24  1  0  0  0  0
 11 14  2  0  0  0  0
 11 25  1  0  0  0  0
 12 13  2  0  0  0  0
 12 26  1  0  0  0  0
 13 14  1  0  0  0  0
 14 27  1  0  0  0  0
 15 16  1  0  0  0  0
 16 28  1  0  0  0  0
 16 29  1  0  0  0  0
 16 30  1  0  0  0  0
 17 31  1  0  0  0  0
 17 32  1  0  0  0  0
 17 33  1  0  0  0  0
M  END
