DB00648
 OpenBabel07062211533D

 28 29  0  0  1  0  0  0  0  0999 V2000
   -1.2173    3.4008   -0.8898 Cl  0  0  0  0  0  0  0  0  0  0  0  0
    1.6511    3.2762   -0.5319 Cl  0  0  0  0  0  0  0  0  0  0  0  0
    2.1068    0.0666   -2.7757 Cl  0  0  0  0  0  0  0  0  0  0  0  0
   -5.0145   -2.0006    0.5168 Cl  0  0  0  0  0  0  0  0  0  0  0  0
    0.0742    0.9652   -0.6385 C   0  0  2  0  0  0  0  0  0  0  0  0
   -1.1907    0.2289   -0.3520 C   0  0  0  0  0  0  0  0  0  0  0  0
    1.3061    0.1657   -0.1709 C   0  0  0  0  0  0  0  0  0  0  0  0
    0.1068    2.4509   -0.1379 C   0  0  0  0  0  0  0  0  0  0  0  0
   -1.6170   -0.7855   -1.2094 C   0  0  0  0  0  0  0  0  0  0  0  0
   -1.9472    0.5539    0.7739 C   0  0  0  0  0  0  0  0  0  0  0  0
    2.2373   -0.2554   -1.0848 C   0  0  0  0  0  0  0  0  0  0  0  0
    1.4011   -0.0871    1.1756 C   0  0  0  0  0  0  0  0  0  0  0  0
   -2.7998   -1.4744   -0.9412 C   0  0  0  0  0  0  0  0  0  0  0  0
   -3.1298   -0.1352    1.0423 C   0  0  0  0  0  0  0  0  0  0  0  0
    3.3378   -0.9781   -0.6239 C   0  0  0  0  0  0  0  0  0  0  0  0
    2.5017   -0.8096    1.6366 C   0  0  0  0  0  0  0  0  0  0  0  0
   -3.5563   -1.1493    0.1847 C   0  0  0  0  0  0  0  0  0  0  0  0
    3.4699   -1.2553    0.7367 C   0  0  0  0  0  0  0  0  0  0  0  0
    0.0874    1.0662   -1.7294 H   0  0  0  0  0  0  0  0  0  0  0  0
    0.0019    2.5364    0.9463 H   0  0  0  0  0  0  0  0  0  0  0  0
   -1.0387   -1.0509   -2.0905 H   0  0  0  0  0  0  0  0  0  0  0  0
   -1.6466    1.3199    1.4803 H   0  0  0  0  0  0  0  0  0  0  0  0
    0.6679    0.2607    1.8948 H   0  0  0  0  0  0  0  0  0  0  0  0
   -3.1195   -2.2626   -1.6181 H   0  0  0  0  0  0  0  0  0  0  0  0
   -3.7070    0.1252    1.9258 H   0  0  0  0  0  0  0  0  0  0  0  0
    4.1011   -1.3324   -1.3121 H   0  0  0  0  0  0  0  0  0  0  0  0
    2.6065   -1.0228    2.6963 H   0  0  0  0  0  0  0  0  0  0  0  0
    4.3270   -1.8173    1.0958 H   0  0  0  0  0  0  0  0  0  0  0  0
  1  8  1  0  0  0  0
  2  8  1  0  0  0  0
  3 11  1  0  0  0  0
  4 17  1  0  0  0  0
  5  6  1  0  0  0  0
  5  7  1  0  0  0  0
  5  8  1  0  0  0  0
  5 19  1  6  0  0  0
  6  9  2  0  0  0  0
  6 10  1  0  0  0  0
  7 11  2  0  0  0  0
  7 12  1  0  0  0  0
  8 20  1  0  0  0  0
  9 13  1  0  0  0  0
  9 21  1  0  0  0  0
 10 14  2  0  0  0  0
 10 22  1  0  0  0  0
 11 15  1  0  0  0  0
 12 16  2  0  0  0  0
 12 23  1  0  0  0  0
 13 17  2  0  0  0  0
 13 24  1  0  0  0  0
 14 17  1  0  0  0  0
 14 25  1  0  0  0  0
 15 18  2  0  0  0  0
 15 26  1  0  0  0  0
 16 18  1  0  0  0  0
 16 27  1  0  0  0  0
 18 28  1  0  0  0  0
M  END
