DB00338
 OpenBabel07062211533D

 43 45  0  0  1  0  0  0  0  0999 V2000
    0.1217    0.8752    0.8611 S   0  0  1  0  0  0  0  0  0  0  0  0
   -5.3721   -0.7877    0.9959 O   0  0  0  0  0  0  0  0  0  0  0  0
    0.0713    2.3833    0.7155 O   0  0  0  0  0  0  0  0  0  0  0  0
    7.5047   -0.3432   -0.3093 O   0  0  0  0  0  0  0  0  0  0  0  0
    2.9120    0.9840    0.7504 N   0  0  0  0  0  0  0  0  0  0  0  0
    2.0111   -0.8000   -0.2223 N   0  0  0  0  0  0  0  0  0  0  0  0
   -2.6684    1.6514   -1.0130 N   0  0  0  0  0  0  0  0  0  0  0  0
   -0.8285    0.1750   -0.5192 C   0  0  0  0  0  0  0  0  0  0  0  0
   -2.2890    0.5055   -0.4114 C   0  0  0  0  0  0  0  0  0  0  0  0
   -3.1415   -0.3427    0.2695 C   0  0  0  0  0  0  0  0  0  0  0  0
    1.7645    0.3110    0.4349 C   0  0  2  0  0  0  0  0  0  0  0  0
    3.9695    0.2591    0.2640 C   0  0  0  0  0  0  0  0  0  0  0  0
   -4.4844    0.0113    0.3382 C   0  0  0  0  0  0  0  0  0  0  0  0
    3.3812   -0.8494   -0.3387 C   0  0  0  0  0  0  0  0  0  0  0  0
   -4.9203    1.1843   -0.2681 C   0  0  0  0  0  0  0  0  0  0  0  0
   -2.6491   -1.5959    0.9106 C   0  0  0  0  0  0  0  0  0  0  0  0
    5.3482    0.4713    0.2986 C   0  0  0  0  0  0  0  0  0  0  0  0
   -3.9811    1.9626   -0.9252 C   0  0  0  0  0  0  0  0  0  0  0  0
    4.2017   -1.8135   -0.9485 C   0  0  0  0  0  0  0  0  0  0  0  0
    6.1498   -0.4985   -0.3128 C   0  0  0  0  0  0  0  0  0  0  0  0
    5.5888   -1.6212   -0.9260 C   0  0  0  0  0  0  0  0  0  0  0  0
   -6.3474    1.6070   -0.2230 C   0  0  0  0  0  0  0  0  0  0  0  0
   -6.0157   -1.8051    0.2323 C   0  0  0  0  0  0  0  0  0  0  0  0
    8.0205    0.8214    0.3309 C   0  0  0  0  0  0  0  0  0  0  0  0
   -0.6549   -0.9034   -0.5780 H   0  0  0  0  0  0  0  0  0  0  0  0
   -0.4280    0.6054   -1.4452 H   0  0  0  0  0  0  0  0  0  0  0  0
    2.9724    1.8603    1.2518 H   0  0  0  0  0  0  0  0  0  0  0  0
   -1.7584   -1.4123    1.5191 H   0  0  0  0  0  0  0  0  0  0  0  0
   -3.3818   -2.0369    1.5940 H   0  0  0  0  0  0  0  0  0  0  0  0
   -2.4182   -2.3468    0.1479 H   0  0  0  0  0  0  0  0  0  0  0  0
    5.7191    1.3614    0.7893 H   0  0  0  0  0  0  0  0  0  0  0  0
   -4.2580    2.8886   -1.4197 H   0  0  0  0  0  0  0  0  0  0  0  0
    3.7753   -2.6891   -1.4273 H   0  0  0  0  0  0  0  0  0  0  0  0
    6.2326   -2.3617   -1.3950 H   0  0  0  0  0  0  0  0  0  0  0  0
   -6.4525    2.6775   -0.4314 H   0  0  0  0  0  0  0  0  0  0  0  0
   -6.9304    1.0578   -0.9685 H   0  0  0  0  0  0  0  0  0  0  0  0
   -6.7798    1.4351    0.7683 H   0  0  0  0  0  0  0  0  0  0  0  0
   -6.6676   -2.3731    0.9018 H   0  0  0  0  0  0  0  0  0  0  0  0
   -5.2810   -2.4906   -0.2016 H   0  0  0  0  0  0  0  0  0  0  0  0
   -6.6289   -1.3670   -0.5607 H   0  0  0  0  0  0  0  0  0  0  0  0
    7.6910    1.7374   -0.1711 H   0  0  0  0  0  0  0  0  0  0  0  0
    9.1111    0.7837    0.2397 H   0  0  0  0  0  0  0  0  0  0  0  0
    7.7910    0.8282    1.4019 H   0  0  0  0  0  0  0  0  0  0  0  0
  1  3  2  6  0  0  0
  1  8  1  0  0  0  0
  2 13  1  0  0  0  0
  2 23  1  0  0  0  0
  4 20  1  0  0  0  0
  4 24  1  0  0  0  0
  5 11  1  0  0  0  0
  5 12  2  0  0  0  0
  5 27  1  0  0  0  0
  6 11  1  0  0  0  0
  6 14  2  0  0  0  0
  7  9  2  0  0  0  0
  7 18  1  0  0  0  0
  8  9  1  0  0  0  0
  8 25  1  0  0  0  0
  8 26  1  0  0  0  0
  9 10  1  0  0  0  0
 10 13  2  0  0  0  0
 10 16  1  0  0  0  0
 11  1  1  6  0  0  0
 12 14  1  0  0  0  0
 12 17  1  0  0  0  0
 13 15  1  0  0  0  0
 14 19  1  0  0  0  0
 15 18  2  0  0  0  0
 15 22  1  0  0  0  0
 16 28  1  0  0  0  0
 16 29  1  0  0  0  0
 16 30  1  0  0  0  0
 17 20  2  0  0  0  0
 17 31  1  0  0  0  0
 18 32  1  0  0  0  0
 19 21  2  0  0  0  0
 19 33  1  0  0  0  0
 20 21  1  0  0  0  0
 21 34  1  0  0  0  0
 22 35  1  0  0  0  0
 22 36  1  0  0  0  0
 22 37  1  0  0  0  0
 23 38  1  0  0  0  0
 23 39  1  0  0  0  0
 23 40  1  0  0  0  0
 24 41  1  0  0  0  0
 24 42  1  0  0  0  0
 24 43  1  0  0  0  0
M  END
