DB00177
 OpenBabel07062211533D

 61 63  0  0  1  0  0  0  0  0999 V2000
   -0.5850    2.5283   -1.5767 O   0  0  0  0  0  0  0  0  0  0  0  0
    3.3938    0.7630   -1.2592 O   0  0  0  0  0  0  0  0  0  0  0  0
    1.0467    1.1584   -2.3208 O   0  0  0  0  0  0  0  0  0  0  0  0
    1.7575    0.6177    0.3781 N   0  0  0  0  0  0  0  0  0  0  0  0
   -4.7988    1.1879   -1.9294 N   0  0  0  0  0  0  0  0  0  0  0  0
   -4.3274    1.6295    0.2409 N   0  0  0  0  0  0  0  0  0  0  0  0
   -4.3329    2.4259   -1.7125 N   0  0  0  0  0  0  0  0  0  0  0  0
   -4.0405    2.7315   -0.4407 N   0  0  0  0  0  0  0  0  0  0  0  0
    1.1483    1.8854   -0.0052 C   0  0  1  0  0  0  0  0  0  0  0  0
    2.1572    3.0391    0.1805 C   0  0  0  0  0  0  0  0  0  0  0  0
    1.1135   -0.0679    1.4962 C   0  0  0  0  0  0  0  0  0  0  0  0
    2.8786    0.1533   -0.3183 C   0  0  0  0  0  0  0  0  0  0  0  0
    1.5601    4.4171   -0.1211 C   0  0  0  0  0  0  0  0  0  0  0  0
    2.7958    3.0318    1.5721 C   0  0  0  0  0  0  0  0  0  0  0  0
    3.4541   -1.1781    0.1465 C   0  0  0  0  0  0  0  0  0  0  0  0
    0.5429    1.7964   -1.4033 C   0  0  0  0  0  0  0  0  0  0  0  0
   -0.3065   -0.4418    1.1832 C   0  0  0  0  0  0  0  0  0  0  0  0
    4.6749   -1.6078   -0.6689 C   0  0  0  0  0  0  0  0  0  0  0  0
    5.2059   -2.9630   -0.2031 C   0  0  0  0  0  0  0  0  0  0  0  0
   -0.6210   -1.0204   -0.0465 C   0  0  0  0  0  0  0  0  0  0  0  0
   -1.3111   -0.2109    2.1229 C   0  0  0  0  0  0  0  0  0  0  0  0
   -2.9450   -1.1373    0.6033 C   0  0  0  0  0  0  0  0  0  0  0  0
   -1.9402   -1.3682   -0.3363 C   0  0  0  0  0  0  0  0  0  0  0  0
   -2.6305   -0.5587    1.8329 C   0  0  0  0  0  0  0  0  0  0  0  0
    6.3964   -3.4110   -1.0357 C   0  0  0  0  0  0  0  0  0  0  0  0
   -4.3131   -1.4991    0.3032 C   0  0  0  0  0  0  0  0  0  0  0  0
   -5.1892   -0.6039   -0.3105 C   0  0  0  0  0  0  0  0  0  0  0  0
   -4.7492   -2.7797    0.6429 C   0  0  0  0  0  0  0  0  0  0  0  0
   -6.5015   -0.9893   -0.5843 C   0  0  0  0  0  0  0  0  0  0  0  0
   -6.0615   -3.1651    0.3692 C   0  0  0  0  0  0  0  0  0  0  0  0
   -4.7776    0.7270   -0.6762 C   0  0  0  0  0  0  0  0  0  0  0  0
   -6.9378   -2.2699   -0.2444 C   0  0  0  0  0  0  0  0  0  0  0  0
    0.3083    2.0811    0.6751 H   0  0  0  0  0  0  0  0  0  0  0  0
    2.9758    2.9326   -0.5402 H   0  0  0  0  0  0  0  0  0  0  0  0
    1.1576    0.6127    2.3552 H   0  0  0  0  0  0  0  0  0  0  0  0
    1.6471   -0.9734    1.7923 H   0  0  0  0  0  0  0  0  0  0  0  0
    1.2373    4.4917   -1.1641 H   0  0  0  0  0  0  0  0  0  0  0  0
    0.6966    4.6197    0.5212 H   0  0  0  0  0  0  0  0  0  0  0  0
    2.2986    5.2086    0.0466 H   0  0  0  0  0  0  0  0  0  0  0  0
    3.3856    2.1279    1.7513 H   0  0  0  0  0  0  0  0  0  0  0  0
    3.4764    3.8823    1.6899 H   0  0  0  0  0  0  0  0  0  0  0  0
    2.0327    3.1060    2.3544 H   0  0  0  0  0  0  0  0  0  0  0  0
    3.7459   -1.0826    1.1985 H   0  0  0  0  0  0  0  0  0  0  0  0
    2.6745   -1.9431    0.0581 H   0  0  0  0  0  0  0  0  0  0  0  0
    4.4063   -1.6642   -1.7313 H   0  0  0  0  0  0  0  0  0  0  0  0
    5.4639   -0.8505   -0.5817 H   0  0  0  0  0  0  0  0  0  0  0  0
    4.4146   -3.7183   -0.2751 H   0  0  0  0  0  0  0  0  0  0  0  0
    5.5036   -2.9041    0.8502 H   0  0  0  0  0  0  0  0  0  0  0  0
    0.1471   -1.2272   -0.7863 H   0  0  0  0  0  0  0  0  0  0  0  0
   -1.0800    0.2383    3.0851 H   0  0  0  0  0  0  0  0  0  0  0  0
   -2.1678   -1.8215   -1.2982 H   0  0  0  0  0  0  0  0  0  0  0  0
   -3.4014   -0.3726    2.5770 H   0  0  0  0  0  0  0  0  0  0  0  0
    7.2188   -2.6923   -0.9624 H   0  0  0  0  0  0  0  0  0  0  0  0
    6.1217   -3.5128   -2.0904 H   0  0  0  0  0  0  0  0  0  0  0  0
    6.7608   -4.3815   -0.6846 H   0  0  0  0  0  0  0  0  0  0  0  0
   -0.9289    2.4604   -2.4929 H   0  0  0  0  0  0  0  0  0  0  0  0
   -4.0812   -3.4919    1.1220 H   0  0  0  0  0  0  0  0  0  0  0  0
   -7.2021   -0.3060   -1.0589 H   0  0  0  0  0  0  0  0  0  0  0  0
   -6.4013   -4.1620    0.6338 H   0  0  0  0  0  0  0  0  0  0  0  0
   -7.9597   -2.5700   -0.4566 H   0  0  0  0  0  0  0  0  0  0  0  0
   -4.2075    3.0924   -2.4670 H   0  0  0  0  0  0  0  0  0  0  0  0
  1 16  1  0  0  0  0
  1 56  1  0  0  0  0
  2 12  2  0  0  0  0
  3 16  2  0  0  0  0
  4  9  1  0  0  0  0
  4 11  1  0  0  0  0
  4 12  1  0  0  0  0
  5  7  1  0  0  0  0
  5 31  2  0  0  0  0
  6  8  2  0  0  0  0
  6 31  1  0  0  0  0
  7  8  1  0  0  0  0
  7 61  1  0  0  0  0
  9 10  1  0  0  0  0
  9 16  1  0  0  0  0
  9 33  1  1  0  0  0
 10 13  1  0  0  0  0
 10 14  1  0  0  0  0
 10 34  1  0  0  0  0
 11 17  1  0  0  0  0
 11 35  1  0  0  0  0
 11 36  1  0  0  0  0
 12 15  1  0  0  0  0
 13 37  1  0  0  0  0
 13 38  1  0  0  0  0
 13 39  1  0  0  0  0
 14 40  1  0  0  0  0
 14 41  1  0  0  0  0
 14 42  1  0  0  0  0
 15 18  1  0  0  0  0
 15 43  1  0  0  0  0
 15 44  1  0  0  0  0
 17 20  2  0  0  0  0
 17 21  1  0  0  0  0
 18 19  1  0  0  0  0
 18 45  1  0  0  0  0
 18 46  1  0  0  0  0
 19 25  1  0  0  0  0
 19 47  1  0  0  0  0
 19 48  1  0  0  0  0
 20 23  1  0  0  0  0
 20 49  1  0  0  0  0
 21 24  2  0  0  0  0
 21 50  1  0  0  0  0
 22 23  2  0  0  0  0
 22 24  1  0  0  0  0
 22 26  1  0  0  0  0
 23 51  1  0  0  0  0
 24 52  1  0  0  0  0
 25 53  1  0  0  0  0
 25 54  1  0  0  0  0
 25 55  1  0  0  0  0
 26 27  2  0  0  0  0
 26 28  1  0  0  0  0
 27 29  1  0  0  0  0
 27 31  1  0  0  0  0
 28 30  2  0  0  0  0
 28 57  1  0  0  0  0
 29 32  2  0  0  0  0
 29 58  1  0  0  0  0
 30 32  1  0  0  0  0
 30 59  1  0  0  0  0
 32 60  1  0  0  0  0
M  END
