DB00625
 OpenBabel07062211533D

 30 32  0  0  1  0  0  0  0  0999 V2000
    1.9626   -4.0579    0.6788 Cl  0  0  0  0  0  0  0  0  0  0  0  0
   -0.1719    0.0454    2.5516 F   0  0  0  0  0  0  0  0  0  0  0  0
    1.4192    1.5341    2.4146 F   0  0  0  0  0  0  0  0  0  0  0  0
   -0.6656    2.1399    2.1837 F   0  0  0  0  0  0  0  0  0  0  0  0
    0.6175    2.2239   -0.1631 O   0  0  0  0  0  0  0  0  0  0  0  0
    2.0394    3.7463   -1.0256 O   0  0  0  0  0  0  0  0  0  0  0  0
    2.7730    1.5905   -0.8242 N   0  0  0  0  0  0  0  0  0  0  0  0
   -3.3642   -0.1984   -1.0328 C   0  0  0  0  0  0  0  0  0  0  0  0
   -4.5933    0.3234   -0.3565 C   0  0  0  0  0  0  0  0  0  0  0  0
   -4.2103   -1.1201   -0.2112 C   0  0  0  0  0  0  0  0  0  0  0  0
    0.3193    0.9257    0.4254 C   0  0  2  0  0  0  0  0  0  0  0  0
   -2.0758    0.1950   -0.5226 C   0  0  0  0  0  0  0  0  0  0  0  0
    1.3683   -0.1230    0.1318 C   0  0  0  0  0  0  0  0  0  0  0  0
   -1.0018    0.5228   -0.0972 C   0  0  0  0  0  0  0  0  0  0  0  0
    2.5672    0.2553   -0.4698 C   0  0  0  0  0  0  0  0  0  0  0  0
    0.2226    1.1683    1.9382 C   0  0  0  0  0  0  0  0  0  0  0  0
    1.1957   -1.4715    0.4884 C   0  0  0  0  0  0  0  0  0  0  0  0
    3.5762   -0.6807   -0.7197 C   0  0  0  0  0  0  0  0  0  0  0  0
    1.8277    2.5842   -0.6815 C   0  0  0  0  0  0  0  0  0  0  0  0
    2.1969   -2.4111    0.2359 C   0  0  0  0  0  0  0  0  0  0  0  0
    3.3871   -2.0154   -0.3683 C   0  0  0  0  0  0  0  0  0  0  0  0
   -3.4193   -0.3215   -2.1098 H   0  0  0  0  0  0  0  0  0  0  0  0
   -5.4508    0.5567   -0.9764 H   0  0  0  0  0  0  0  0  0  0  0  0
   -4.4884    0.9606    0.5136 H   0  0  0  0  0  0  0  0  0  0  0  0
   -3.8486   -1.4490    0.7559 H   0  0  0  0  0  0  0  0  0  0  0  0
   -4.8107   -1.8553   -0.7338 H   0  0  0  0  0  0  0  0  0  0  0  0
    0.2726   -1.7925    0.9665 H   0  0  0  0  0  0  0  0  0  0  0  0
    3.6686    1.8394   -1.2349 H   0  0  0  0  0  0  0  0  0  0  0  0
    4.5099   -0.3805   -1.1882 H   0  0  0  0  0  0  0  0  0  0  0  0
    4.1770   -2.7345   -0.5689 H   0  0  0  0  0  0  0  0  0  0  0  0
  1 20  1  0  0  0  0
  2 16  1  0  0  0  0
  3 16  1  0  0  0  0
  4 16  1  0  0  0  0
  5 11  1  0  0  0  0
  5 19  1  0  0  0  0
  6 19  2  0  0  0  0
  7 15  1  0  0  0  0
  7 19  1  0  0  0  0
  7 28  1  0  0  0  0
  8  9  1  0  0  0  0
  8 10  1  0  0  0  0
  8 12  1  0  0  0  0
  8 22  1  0  0  0  0
  9 10  1  0  0  0  0
  9 23  1  0  0  0  0
  9 24  1  0  0  0  0
 10 25  1  0  0  0  0
 10 26  1  0  0  0  0
 11 13  1  0  0  0  0
 11 14  1  6  0  0  0
 11 16  1  0  0  0  0
 12 14  3  0  0  0  0
 13 15  2  0  0  0  0
 13 17  1  0  0  0  0
 15 18  1  0  0  0  0
 17 20  2  0  0  0  0
 17 27  1  0  0  0  0
 18 21  2  0  0  0  0
 18 29  1  0  0  0  0
 20 21  1  0  0  0  0
 21 30  1  0  0  0  0
M  END
