DB00872
 OpenBabel07062211533D

 64 69  0  0  1  0  0  0  0  0999 V2000
    2.7147   -3.3085   -1.0382 O   0  0  0  0  0  0  0  0  0  0  0  0
   -3.6242   -0.1490   -2.1568 O   0  0  0  0  0  0  0  0  0  0  0  0
    3.1572   -1.4296    0.3166 N   0  0  0  0  0  0  0  0  0  0  0  0
    4.1070    2.7538   -0.4991 N   0  0  0  0  0  0  0  0  0  0  0  0
    6.0963    1.7932   -0.5398 N   0  0  0  0  0  0  0  0  0  0  0  0
   -3.2464   -1.5145   -0.2805 N   0  0  0  0  0  0  0  0  0  0  0  0
    2.5503    0.9676    0.2524 C   0  0  0  0  0  0  0  0  0  0  0  0
    2.6339   -0.2932    1.0932 C   0  0  0  0  0  0  0  0  0  0  0  0
    3.9006    1.4551   -0.1051 C   0  0  2  0  0  0  0  0  0  0  0  0
    5.1498    0.8647   -0.1404 C   0  0  0  0  0  0  0  0  0  0  0  0
    4.5877   -1.5939    0.2954 C   0  0  0  0  0  0  0  0  0  0  0  0
    5.5050   -0.5226    0.1644 C   0  0  0  0  0  0  0  0  0  0  0  0
    5.4378    2.9088   -0.7446 C   0  0  0  0  0  0  0  0  0  0  0  0
    2.3376   -2.3429   -0.3746 C   0  0  0  0  0  0  0  0  0  0  0  0
    5.0920   -2.9031    0.4669 C   0  0  0  0  0  0  0  0  0  0  0  0
    6.8866   -0.8141    0.2352 C   0  0  0  0  0  0  0  0  0  0  0  0
    0.8852   -2.1278   -0.3504 C   0  0  0  0  0  0  0  0  0  0  0  0
    6.4599   -3.1610    0.5242 C   0  0  0  0  0  0  0  0  0  0  0  0
    7.3587   -2.1140    0.4140 C   0  0  0  0  0  0  0  0  0  0  0  0
    5.9962    4.1998   -1.1842 C   0  0  0  0  0  0  0  0  0  0  0  0
    0.2864   -1.3482   -1.3349 C   0  0  0  0  0  0  0  0  0  0  0  0
    0.1186   -2.7050    0.6570 C   0  0  0  0  0  0  0  0  0  0  0  0
   -1.8668   -1.7199   -0.3043 C   0  0  0  0  0  0  0  0  0  0  0  0
   -1.0932   -1.1438   -1.3119 C   0  0  0  0  0  0  0  0  0  0  0  0
   -1.2610   -2.5006    0.6800 C   0  0  0  0  0  0  0  0  0  0  0  0
   -5.4762   -0.7124   -0.8672 C   0  0  0  0  0  0  0  0  0  0  0  0
   -5.9901    0.2845   -0.0628 C   0  0  0  0  0  0  0  0  0  0  0  0
   -4.0232   -0.7670   -1.1758 C   0  0  0  0  0  0  0  0  0  0  0  0
   -5.1541    1.3177    0.5175 C   0  0  0  0  0  0  0  0  0  0  0  0
   -6.2765   -1.6952   -1.4176 C   0  0  0  0  0  0  0  0  0  0  0  0
   -7.3594    0.3006    0.2030 C   0  0  0  0  0  0  0  0  0  0  0  0
   -7.6457   -1.6791   -1.1518 C   0  0  0  0  0  0  0  0  0  0  0  0
   -8.1871   -0.6811   -0.3415 C   0  0  0  0  0  0  0  0  0  0  0  0
   -4.5733    1.1193    1.7683 C   0  0  0  0  0  0  0  0  0  0  0  0
   -4.9350    2.5050   -0.1775 C   0  0  0  0  0  0  0  0  0  0  0  0
   -3.7694    2.1132    2.3267 C   0  0  0  0  0  0  0  0  0  0  0  0
   -4.1310    3.4989    0.3809 C   0  0  0  0  0  0  0  0  0  0  0  0
   -3.5483    3.3029    1.6330 C   0  0  0  0  0  0  0  0  0  0  0  0
    1.9767    0.8012   -0.6641 H   0  0  0  0  0  0  0  0  0  0  0  0
    2.0241    1.7390    0.8281 H   0  0  0  0  0  0  0  0  0  0  0  0
    3.2635   -0.1492    1.9817 H   0  0  0  0  0  0  0  0  0  0  0  0
    1.6373   -0.5339    1.4736 H   0  0  0  0  0  0  0  0  0  0  0  0
    3.3954    3.4677   -0.5841 H   0  0  0  0  0  0  0  0  0  0  0  0
    4.4236   -3.7477    0.6199 H   0  0  0  0  0  0  0  0  0  0  0  0
    7.6316   -0.0256    0.1397 H   0  0  0  0  0  0  0  0  0  0  0  0
    6.8173   -4.1757    0.6718 H   0  0  0  0  0  0  0  0  0  0  0  0
    8.4269   -2.3028    0.4624 H   0  0  0  0  0  0  0  0  0  0  0  0
    7.0787    4.1244   -1.3277 H   0  0  0  0  0  0  0  0  0  0  0  0
    5.5504    4.5125   -2.1335 H   0  0  0  0  0  0  0  0  0  0  0  0
    5.8076    4.9784   -0.4384 H   0  0  0  0  0  0  0  0  0  0  0  0
    0.8804   -0.9005   -2.1273 H   0  0  0  0  0  0  0  0  0  0  0  0
    0.5820   -3.3143    1.4284 H   0  0  0  0  0  0  0  0  0  0  0  0
   -1.4870   -0.5287   -2.1084 H   0  0  0  0  0  0  0  0  0  0  0  0
   -1.8516   -2.9552    1.4714 H   0  0  0  0  0  0  0  0  0  0  0  0
   -3.7412   -1.9628    0.4880 H   0  0  0  0  0  0  0  0  0  0  0  0
   -5.8622   -2.4755   -2.0497 H   0  0  0  0  0  0  0  0  0  0  0  0
   -7.7996    1.0706    0.8325 H   0  0  0  0  0  0  0  0  0  0  0  0
   -8.2902   -2.4435   -1.5757 H   0  0  0  0  0  0  0  0  0  0  0  0
   -9.2532   -0.6688   -0.1348 H   0  0  0  0  0  0  0  0  0  0  0  0
   -4.7348    0.1972    2.3215 H   0  0  0  0  0  0  0  0  0  0  0  0
   -5.3812    2.6731   -1.1547 H   0  0  0  0  0  0  0  0  0  0  0  0
   -3.3151    1.9603    3.3012 H   0  0  0  0  0  0  0  0  0  0  0  0
   -3.9584    4.4250   -0.1593 H   0  0  0  0  0  0  0  0  0  0  0  0
   -2.9220    4.0764    2.0675 H   0  0  0  0  0  0  0  0  0  0  0  0
  1 14  2  0  0  0  0
  2 28  2  0  0  0  0
  3  8  1  0  0  0  0
  3 11  1  0  0  0  0
  3 14  1  0  0  0  0
  4  9  1  0  0  0  0
  4 13  2  0  0  0  0
  4 43  1  0  0  0  0
  5 10  2  0  0  0  0
  5 13  1  0  0  0  0
  6 23  1  0  0  0  0
  6 28  1  0  0  0  0
  6 55  1  0  0  0  0
  7  8  1  0  0  0  0
  7  9  1  0  0  0  0
  7 39  1  0  0  0  0
  7 40  1  0  0  0  0
  8 41  1  0  0  0  0
  8 42  1  0  0  0  0
  9 10  1  1  0  0  0
 10 12  1  0  0  0  0
 11 12  2  0  0  0  0
 11 15  1  0  0  0  0
 12 16  1  0  0  0  0
 13 20  1  0  0  0  0
 14 17  1  0  0  0  0
 15 18  2  0  0  0  0
 15 44  1  0  0  0  0
 16 19  2  0  0  0  0
 16 45  1  0  0  0  0
 17 21  2  0  0  0  0
 17 22  1  0  0  0  0
 18 19  1  0  0  0  0
 18 46  1  0  0  0  0
 19 47  1  0  0  0  0
 20 48  1  0  0  0  0
 20 49  1  0  0  0  0
 20 50  1  0  0  0  0
 21 24  1  0  0  0  0
 21 51  1  0  0  0  0
 22 25  2  0  0  0  0
 22 52  1  0  0  0  0
 23 24  2  0  0  0  0
 23 25  1  0  0  0  0
 24 53  1  0  0  0  0
 25 54  1  0  0  0  0
 26 27  2  0  0  0  0
 26 28  1  0  0  0  0
 26 30  1  0  0  0  0
 27 29  1  0  0  0  0
 27 31  1  0  0  0  0
 29 34  2  0  0  0  0
 29 35  1  0  0  0  0
 30 32  2  0  0  0  0
 30 56  1  0  0  0  0
 31 33  2  0  0  0  0
 31 57  1  0  0  0  0
 32 33  1  0  0  0  0
 32 58  1  0  0  0  0
 33 59  1  0  0  0  0
 34 36  1  0  0  0  0
 34 60  1  0  0  0  0
 35 37  2  0  0  0  0
 35 61  1  0  0  0  0
 36 38  2  0  0  0  0
 36 62  1  0  0  0  0
 37 38  1  0  0  0  0
 37 63  1  0  0  0  0
 38 64  1  0  0  0  0
M  END
