DB00606
 OpenBabel07062211533D

 40 43  0  0  1  0  0  0  0  0999 V2000
    4.3535    3.0603   -0.0381 Cl  0  0  0  0  0  0  0  0  0  0  0  0
    0.9021   -2.1440    0.4196 S   0  0  0  0  0  0  0  0  0  0  0  0
    5.7554    0.1995    0.5108 S   0  0  0  0  0  0  0  0  0  0  0  0
    0.6509   -2.3665    1.8296 O   0  0  0  0  0  0  0  0  0  0  0  0
    1.5499   -3.1432   -0.4066 O   0  0  0  0  0  0  0  0  0  0  0  0
    6.2519    1.4911    0.9760 O   0  0  0  0  0  0  0  0  0  0  0  0
    5.9408   -0.9981    1.3233 O   0  0  0  0  0  0  0  0  0  0  0  0
   -0.5436   -1.6607   -0.3532 N   0  0  0  0  0  0  0  0  0  0  0  0
   -0.1595    0.7251   -0.0891 N   0  0  0  0  0  0  0  0  0  0  0  0
    6.4395   -0.0921   -1.0396 N   0  0  0  0  0  0  0  0  0  0  0  0
   -2.3799   -0.0833   -0.6565 C   0  0  2  0  0  0  0  0  0  0  0  0
   -3.1479    1.1884   -0.2081 C   0  0  1  0  0  0  0  0  0  0  0  0
   -4.7109   -0.4027   -0.0635 C   0  0  2  0  0  0  0  0  0  0  0  0
   -3.4597   -1.1988   -0.4984 C   0  0  0  0  0  0  0  0  0  0  0  0
   -4.5221    0.9095   -0.8313 C   0  0  0  0  0  0  0  0  0  0  0  0
   -1.0942   -0.3669    0.1102 C   0  0  1  0  0  0  0  0  0  0  0  0
   -3.5316    1.0687    1.2487 C   0  0  0  0  0  0  0  0  0  0  0  0
   -4.4657    0.1102    1.3358 C   0  0  0  0  0  0  0  0  0  0  0  0
    1.2090    0.5739    0.0818 C   0  0  0  0  0  0  0  0  0  0  0  0
    1.8452   -0.6558    0.3119 C   0  0  0  0  0  0  0  0  0  0  0  0
    2.0340    1.7054   -0.0276 C   0  0  0  0  0  0  0  0  0  0  0  0
    3.2330   -0.7648    0.4410 C   0  0  0  0  0  0  0  0  0  0  0  0
    4.0210    0.3771    0.3397 C   0  0  0  0  0  0  0  0  0  0  0  0
    3.4230    1.6118    0.1041 C   0  0  0  0  0  0  0  0  0  0  0  0
   -2.1473    0.0122   -1.7280 H   0  0  0  0  0  0  0  0  0  0  0  0
   -2.7132    2.1464   -0.4955 H   0  0  0  0  0  0  0  0  0  0  0  0
   -5.6707   -0.8985   -0.2108 H   0  0  0  0  0  0  0  0  0  0  0  0
   -3.1913   -1.9672    0.2352 H   0  0  0  0  0  0  0  0  0  0  0  0
   -3.6311   -1.6882   -1.4642 H   0  0  0  0  0  0  0  0  0  0  0  0
   -4.4888    0.7745   -1.9185 H   0  0  0  0  0  0  0  0  0  0  0  0
   -5.2749    1.6706   -0.5890 H   0  0  0  0  0  0  0  0  0  0  0  0
   -1.3041   -0.4629    1.1824 H   0  0  0  0  0  0  0  0  0  0  0  0
   -3.0910    1.6112    2.0698 H   0  0  0  0  0  0  0  0  0  0  0  0
   -4.9192   -0.2626    2.2400 H   0  0  0  0  0  0  0  0  0  0  0  0
   -0.6013   -1.8228   -1.3668 H   0  0  0  0  0  0  0  0  0  0  0  0
   -0.5204    1.6706   -0.1477 H   0  0  0  0  0  0  0  0  0  0  0  0
    1.5785    2.6766   -0.2190 H   0  0  0  0  0  0  0  0  0  0  0  0
    3.6793   -1.7406    0.6099 H   0  0  0  0  0  0  0  0  0  0  0  0
    6.8503   -1.0260   -1.1736 H   0  0  0  0  0  0  0  0  0  0  0  0
    5.8511    0.1628   -1.8445 H   0  0  0  0  0  0  0  0  0  0  0  0
  1 24  1  0  0  0  0
  2  4  2  0  0  0  0
  2  5  2  0  0  0  0
  2  8  1  0  0  0  0
  2 20  1  0  0  0  0
  3  6  2  0  0  0  0
  3  7  2  0  0  0  0
  3 10  1  0  0  0  0
  3 23  1  0  0  0  0
  8 16  1  0  0  0  0
  8 35  1  0  0  0  0
  9 16  1  0  0  0  0
  9 19  1  0  0  0  0
  9 36  1  0  0  0  0
 10 39  1  0  0  0  0
 10 40  1  0  0  0  0
 11 12  1  1  0  0  0
 11 14  1  0  0  0  0
 11 16  1  0  0  0  0
 11 25  1  0  0  0  0
 12 15  1  0  0  0  0
 12 17  1  0  0  0  0
 12 26  1  6  0  0  0
 13 14  1  0  0  0  0
 13 15  1  0  0  0  0
 13 18  1  0  0  0  0
 13 27  1  6  0  0  0
 14 28  1  0  0  0  0
 14 29  1  0  0  0  0
 15 30  1  0  0  0  0
 15 31  1  0  0  0  0
 16 32  1  1  0  0  0
 17 18  2  0  0  0  0
 17 33  1  0  0  0  0
 18 34  1  0  0  0  0
 19 20  2  0  0  0  0
 19 21  1  0  0  0  0
 20 22  1  0  0  0  0
 21 24  2  0  0  0  0
 21 37  1  0  0  0  0
 22 23  2  0  0  0  0
 22 38  1  0  0  0  0
 23 24  1  0  0  0  0
M  END
