DB00477
 OpenBabel07062211533D

 40 42  0  0  0  0  0  0  0  0999 V2000
   -5.1260   -2.4397   -1.0664 Cl  0  0  0  0  0  0  0  0  0  0  0  0
   -1.7637    2.2394    1.4637 S   0  0  0  0  0  0  0  0  0  0  0  0
   -0.7193    0.2520   -0.6864 N   0  0  0  0  0  0  0  0  0  0  0  0
    2.2898   -1.1588    0.5381 N   0  0  0  0  0  0  0  0  0  0  0  0
   -0.0465   -0.8690   -1.3553 C   0  0  0  0  0  0  0  0  0  0  0  0
    0.1618   -2.0313   -0.3850 C   0  0  0  0  0  0  0  0  0  0  0  0
    0.9685   -1.6785    0.8685 C   0  0  0  0  0  0  0  0  0  0  0  0
   -2.0569    0.0509   -0.2614 C   0  0  0  0  0  0  0  0  0  0  0  0
   -0.0040    1.4714   -0.5772 C   0  0  0  0  0  0  0  0  0  0  0  0
   -2.6515    0.9013    0.6919 C   0  0  0  0  0  0  0  0  0  0  0  0
   -0.3954    2.4627    0.3443 C   0  0  0  0  0  0  0  0  0  0  0  0
   -2.8638   -0.9787   -0.7931 C   0  0  0  0  0  0  0  0  0  0  0  0
    1.1025    1.7659   -1.4035 C   0  0  0  0  0  0  0  0  0  0  0  0
   -3.9811    0.7022    1.1042 C   0  0  0  0  0  0  0  0  0  0  0  0
    0.3123    3.6740    0.4426 C   0  0  0  0  0  0  0  0  0  0  0  0
    3.0815   -2.1711   -0.1633 C   0  0  0  0  0  0  0  0  0  0  0  0
    2.9875   -0.7170    1.7469 C   0  0  0  0  0  0  0  0  0  0  0  0
   -4.1863   -1.1691   -0.3835 C   0  0  0  0  0  0  0  0  0  0  0  0
    1.7994    2.9733   -1.3052 C   0  0  0  0  0  0  0  0  0  0  0  0
   -4.7446   -0.3297    0.5684 C   0  0  0  0  0  0  0  0  0  0  0  0
    1.4057    3.9272   -0.3789 C   0  0  0  0  0  0  0  0  0  0  0  0
   -0.6067   -1.1917   -2.2407 H   0  0  0  0  0  0  0  0  0  0  0  0
    0.9417   -0.6464   -1.7565 H   0  0  0  0  0  0  0  0  0  0  0  0
    0.6228   -2.8669   -0.9248 H   0  0  0  0  0  0  0  0  0  0  0  0
   -0.7982   -2.4346   -0.0447 H   0  0  0  0  0  0  0  0  0  0  0  0
    1.0459   -2.5718    1.5029 H   0  0  0  0  0  0  0  0  0  0  0  0
    0.4098   -0.9375    1.4533 H   0  0  0  0  0  0  0  0  0  0  0  0
   -2.4864   -1.6519   -1.5581 H   0  0  0  0  0  0  0  0  0  0  0  0
    1.4393    1.1090   -2.1982 H   0  0  0  0  0  0  0  0  0  0  0  0
   -4.4371    1.3516    1.8489 H   0  0  0  0  0  0  0  0  0  0  0  0
    0.0173    4.4354    1.1619 H   0  0  0  0  0  0  0  0  0  0  0  0
    4.1051   -1.8098   -0.3206 H   0  0  0  0  0  0  0  0  0  0  0  0
    3.1425   -3.1130    0.3940 H   0  0  0  0  0  0  0  0  0  0  0  0
    2.6939   -2.3752   -1.1657 H   0  0  0  0  0  0  0  0  0  0  0  0
    2.4173    0.0696    2.2540 H   0  0  0  0  0  0  0  0  0  0  0  0
    3.9603   -0.2815    1.4930 H   0  0  0  0  0  0  0  0  0  0  0  0
    3.1496   -1.5380    2.4546 H   0  0  0  0  0  0  0  0  0  0  0  0
    2.6403    3.1694   -1.9642 H   0  0  0  0  0  0  0  0  0  0  0  0
   -5.7706   -0.4617    0.9007 H   0  0  0  0  0  0  0  0  0  0  0  0
    1.9428    4.8672   -0.2993 H   0  0  0  0  0  0  0  0  0  0  0  0
  1 18  1  0  0  0  0
  2 10  1  0  0  0  0
  2 11  1  0  0  0  0
  3  5  1  0  0  0  0
  3  8  1  0  0  0  0
  3  9  1  0  0  0  0
  4  7  1  0  0  0  0
  4 16  1  0  0  0  0
  4 17  1  0  0  0  0
  5  6  1  0  0  0  0
  5 22  1  0  0  0  0
  5 23  1  0  0  0  0
  6  7  1  0  0  0  0
  6 24  1  0  0  0  0
  6 25  1  0  0  0  0
  7 26  1  0  0  0  0
  7 27  1  0  0  0  0
  8 10  2  0  0  0  0
  8 12  1  0  0  0  0
  9 11  2  0  0  0  0
  9 13  1  0  0  0  0
 10 14  1  0  0  0  0
 11 15  1  0  0  0  0
 12 18  2  0  0  0  0
 12 28  1  0  0  0  0
 13 19  2  0  0  0  0
 13 29  1  0  0  0  0
 14 20  2  0  0  0  0
 14 30  1  0  0  0  0
 15 21  2  0  0  0  0
 15 31  1  0  0  0  0
 16 32  1  0  0  0  0
 16 33  1  0  0  0  0
 16 34  1  0  0  0  0
 17 35  1  0  0  0  0
 17 36  1  0  0  0  0
 17 37  1  0  0  0  0
 18 20  1  0  0  0  0
 19 21  1  0  0  0  0
 19 38  1  0  0  0  0
 20 39  1  0  0  0  0
 21 40  1  0  0  0  0
M  END
