DB00682
 OpenBabel07062211533D

 39 41  0  0  1  0  0  0  0  0999 V2000
   -2.2799   -0.2261   -2.0514 O   0  0  0  0  0  0  0  0  0  0  0  0
   -0.4351    0.3914    1.6540 O   0  0  0  0  0  0  0  0  0  0  0  0
   -0.2830   -0.7913   -2.9828 O   0  0  0  0  0  0  0  0  0  0  0  0
    0.6528   -3.1371   -1.3902 O   0  0  0  0  0  0  0  0  0  0  0  0
    1.2460   -0.4508   -0.6918 C   0  0  2  0  0  0  0  0  0  0  0  0
   -0.2402   -0.2141   -0.6735 C   0  0  0  0  0  0  0  0  0  0  0  0
    1.6204   -1.6238    0.2353 C   0  0  0  0  0  0  0  0  0  0  0  0
    2.0074    0.8244   -0.3629 C   0  0  0  0  0  0  0  0  0  0  0  0
   -0.9597    0.1691    0.3987 C   0  0  0  0  0  0  0  0  0  0  0  0
   -2.4055    0.3814    0.2977 C   0  0  0  0  0  0  0  0  0  0  0  0
   -0.9091   -0.4363   -1.9886 C   0  0  0  0  0  0  0  0  0  0  0  0
    1.2518   -2.9906   -0.3259 C   0  0  0  0  0  0  0  0  0  0  0  0
    2.2997    1.7423   -1.3716 C   0  0  0  0  0  0  0  0  0  0  0  0
    2.4132    1.0756    0.9477 C   0  0  0  0  0  0  0  0  0  0  0  0
   -3.0247    0.1770   -0.9304 C   0  0  0  0  0  0  0  0  0  0  0  0
   -3.2061    0.7822    1.3762 C   0  0  0  0  0  0  0  0  0  0  0  0
    2.9982    2.9116   -1.0697 C   0  0  0  0  0  0  0  0  0  0  0  0
    3.1115    2.2447    1.2496 C   0  0  0  0  0  0  0  0  0  0  0  0
   -4.3966    0.3578   -1.1121 C   0  0  0  0  0  0  0  0  0  0  0  0
    1.6206   -4.1784    0.5246 C   0  0  0  0  0  0  0  0  0  0  0  0
    3.4040    3.1628    0.2409 C   0  0  0  0  0  0  0  0  0  0  0  0
   -4.5829    0.9683    1.2114 C   0  0  0  0  0  0  0  0  0  0  0  0
   -5.1772    0.7565   -0.0317 C   0  0  0  0  0  0  0  0  0  0  0  0
    1.5964   -0.7415   -1.6905 H   0  0  0  0  0  0  0  0  0  0  0  0
    1.1615   -1.5480    1.2268 H   0  0  0  0  0  0  0  0  0  0  0  0
    2.7097   -1.6491    0.3738 H   0  0  0  0  0  0  0  0  0  0  0  0
    1.9880    1.5594   -2.3965 H   0  0  0  0  0  0  0  0  0  0  0  0
    2.2086    0.3890    1.7626 H   0  0  0  0  0  0  0  0  0  0  0  0
   -2.7928    0.9769    2.3619 H   0  0  0  0  0  0  0  0  0  0  0  0
    3.2255    3.6265   -1.8550 H   0  0  0  0  0  0  0  0  0  0  0  0
    3.4279    2.4407    2.2700 H   0  0  0  0  0  0  0  0  0  0  0  0
   -4.8551    0.1914   -2.0822 H   0  0  0  0  0  0  0  0  0  0  0  0
    2.6981   -4.1787    0.7068 H   0  0  0  0  0  0  0  0  0  0  0  0
    1.3528   -5.1022    0.0043 H   0  0  0  0  0  0  0  0  0  0  0  0
    1.0774   -4.1330    1.4716 H   0  0  0  0  0  0  0  0  0  0  0  0
    3.9477    4.0730    0.4760 H   0  0  0  0  0  0  0  0  0  0  0  0
   -5.1906    1.2831    2.0552 H   0  0  0  0  0  0  0  0  0  0  0  0
   -1.0345    0.0131    2.3180 H   0  0  0  0  0  0  0  0  0  0  0  0
   -6.2460    0.9028   -0.1559 H   0  0  0  0  0  0  0  0  0  0  0  0
  1 11  1  0  0  0  0
  1 15  1  0  0  0  0
  2  9  1  0  0  0  0
  2 38  1  0  0  0  0
  3 11  2  0  0  0  0
  4 12  2  0  0  0  0
  5  6  1  0  0  0  0
  5  7  1  0  0  0  0
  5  8  1  0  0  0  0
  5 24  1  6  0  0  0
  6  9  2  0  0  0  0
  6 11  1  0  0  0  0
  7 12  1  0  0  0  0
  7 25  1  0  0  0  0
  7 26  1  0  0  0  0
  8 13  2  0  0  0  0
  8 14  1  0  0  0  0
  9 10  1  0  0  0  0
 10 15  2  0  0  0  0
 10 16  1  0  0  0  0
 12 20  1  0  0  0  0
 13 17  1  0  0  0  0
 13 27  1  0  0  0  0
 14 18  2  0  0  0  0
 14 28  1  0  0  0  0
 15 19  1  0  0  0  0
 16 22  2  0  0  0  0
 16 29  1  0  0  0  0
 17 21  2  0  0  0  0
 17 30  1  0  0  0  0
 18 21  1  0  0  0  0
 18 31  1  0  0  0  0
 19 23  2  0  0  0  0
 19 32  1  0  0  0  0
 20 33  1  0  0  0  0
 20 34  1  0  0  0  0
 20 35  1  0  0  0  0
 21 36  1  0  0  0  0
 22 23  1  0  0  0  0
 22 37  1  0  0  0  0
 23 39  1  0  0  0  0
M  END
