DB00892
 OpenBabel07062211533D

 50 50  0  0  0  0  0  0  0  0999 V2000
   -1.1327    1.5827   -0.2156 O   0  0  0  0  0  0  0  0  0  0  0  0
    3.5262    0.5118    1.0097 O   0  0  0  0  0  0  0  0  0  0  0  0
   -1.2761    3.8650    0.0478 O   0  0  0  0  0  0  0  0  0  0  0  0
   -4.3956   -0.1138   -0.4971 N   0  0  0  0  0  0  0  0  0  0  0  0
    5.0524    2.6949    0.0903 N   0  0  0  0  0  0  0  0  0  0  0  0
   -2.9483    0.0311   -0.4533 C   0  0  0  0  0  0  0  0  0  0  0  0
   -4.7712   -1.3732   -1.1445 C   0  0  0  0  0  0  0  0  0  0  0  0
   -4.9638   -0.0501    0.8518 C   0  0  0  0  0  0  0  0  0  0  0  0
   -2.5602    1.4897   -0.2703 C   0  0  0  0  0  0  0  0  0  0  0  0
   -4.2618   -2.5685   -0.3569 C   0  0  0  0  0  0  0  0  0  0  0  0
   -6.4805   -0.1313    0.8130 C   0  0  0  0  0  0  0  0  0  0  0  0
    4.4831   -1.6194    0.4854 C   0  0  0  0  0  0  0  0  0  0  0  0
    3.2688   -0.7135    0.3380 C   0  0  0  0  0  0  0  0  0  0  0  0
    4.2812   -2.9531   -0.2286 C   0  0  0  0  0  0  0  0  0  0  0  0
    2.9019    1.6292    0.5188 C   0  0  0  0  0  0  0  0  0  0  0  0
    0.8531    2.7936   -0.0141 C   0  0  0  0  0  0  0  0  0  0  0  0
   -0.6002    2.8324   -0.0528 C   0  0  0  0  0  0  0  0  0  0  0  0
    1.5080    1.6664    0.4821 C   0  0  0  0  0  0  0  0  0  0  0  0
    3.6410    2.7194    0.0597 C   0  0  0  0  0  0  0  0  0  0  0  0
    5.5124   -3.8376   -0.1155 C   0  0  0  0  0  0  0  0  0  0  0  0
    1.5923    3.8839   -0.4733 C   0  0  0  0  0  0  0  0  0  0  0  0
    2.9861    3.8468   -0.4362 C   0  0  0  0  0  0  0  0  0  0  0  0
   -2.4896   -0.3044   -1.3936 H   0  0  0  0  0  0  0  0  0  0  0  0
   -2.4785   -0.5687    0.3372 H   0  0  0  0  0  0  0  0  0  0  0  0
   -5.8516   -1.4474   -1.3063 H   0  0  0  0  0  0  0  0  0  0  0  0
   -4.3436   -1.4011   -2.1552 H   0  0  0  0  0  0  0  0  0  0  0  0
   -4.5545   -0.7931    1.5454 H   0  0  0  0  0  0  0  0  0  0  0  0
   -4.7313    0.9243    1.2960 H   0  0  0  0  0  0  0  0  0  0  0  0
   -2.9257    2.0895   -1.1127 H   0  0  0  0  0  0  0  0  0  0  0  0
   -2.9590    1.9033    0.6612 H   0  0  0  0  0  0  0  0  0  0  0  0
   -4.4909   -3.4799   -0.9228 H   0  0  0  0  0  0  0  0  0  0  0  0
   -4.7516   -2.6901    0.6131 H   0  0  0  0  0  0  0  0  0  0  0  0
   -3.1780   -2.5696   -0.2126 H   0  0  0  0  0  0  0  0  0  0  0  0
   -6.8874    0.1540    1.7898 H   0  0  0  0  0  0  0  0  0  0  0  0
   -6.8429   -1.1427    0.6066 H   0  0  0  0  0  0  0  0  0  0  0  0
   -6.9043    0.5555    0.0722 H   0  0  0  0  0  0  0  0  0  0  0  0
    4.6882   -1.7850    1.5505 H   0  0  0  0  0  0  0  0  0  0  0  0
    5.3670   -1.1060    0.0864 H   0  0  0  0  0  0  0  0  0  0  0  0
    2.3887   -1.1873    0.7877 H   0  0  0  0  0  0  0  0  0  0  0  0
    3.0676   -0.5402   -0.7272 H   0  0  0  0  0  0  0  0  0  0  0  0
    4.0621   -2.7793   -1.2886 H   0  0  0  0  0  0  0  0  0  0  0  0
    3.4189   -3.4775    0.1993 H   0  0  0  0  0  0  0  0  0  0  0  0
    0.9441    0.8186    0.8636 H   0  0  0  0  0  0  0  0  0  0  0  0
    5.7430   -4.0566    0.9321 H   0  0  0  0  0  0  0  0  0  0  0  0
    5.3454   -4.7878   -0.6323 H   0  0  0  0  0  0  0  0  0  0  0  0
    6.3853   -3.3546   -0.5661 H   0  0  0  0  0  0  0  0  0  0  0  0
    1.0978    4.7688   -0.8656 H   0  0  0  0  0  0  0  0  0  0  0  0
    3.5504    4.7027   -0.7978 H   0  0  0  0  0  0  0  0  0  0  0  0
    5.5330    1.8791    0.4459 H   0  0  0  0  0  0  0  0  0  0  0  0
    5.5815    3.4890   -0.2443 H   0  0  0  0  0  0  0  0  0  0  0  0
  1  9  1  0  0  0  0
  1 17  1  0  0  0  0
  2 13  1  0  0  0  0
  2 15  1  0  0  0  0
  3 17  2  0  0  0  0
  4  6  1  0  0  0  0
  4  7  1  0  0  0  0
  4  8  1  0  0  0  0
  5 19  1  0  0  0  0
  5 49  1  0  0  0  0
  5 50  1  0  0  0  0
  6  9  1  0  0  0  0
  6 23  1  0  0  0  0
  6 24  1  0  0  0  0
  7 10  1  0  0  0  0
  7 25  1  0  0  0  0
  7 26  1  0  0  0  0
  8 11  1  0  0  0  0
  8 27  1  0  0  0  0
  8 28  1  0  0  0  0
  9 29  1  0  0  0  0
  9 30  1  0  0  0  0
 10 31  1  0  0  0  0
 10 32  1  0  0  0  0
 10 33  1  0  0  0  0
 11 34  1  0  0  0  0
 11 35  1  0  0  0  0
 11 36  1  0  0  0  0
 12 13  1  0  0  0  0
 12 14  1  0  0  0  0
 12 37  1  0  0  0  0
 12 38  1  0  0  0  0
 13 39  1  0  0  0  0
 13 40  1  0  0  0  0
 14 20  1  0  0  0  0
 14 41  1  0  0  0  0
 14 42  1  0  0  0  0
 15 18  2  0  0  0  0
 15 19  1  0  0  0  0
 16 17  1  0  0  0  0
 16 18  1  0  0  0  0
 16 21  2  0  0  0  0
 18 43  1  0  0  0  0
 19 22  2  0  0  0  0
 20 44  1  0  0  0  0
 20 45  1  0  0  0  0
 20 46  1  0  0  0  0
 21 22  1  0  0  0  0
 21 47  1  0  0  0  0
 22 48  1  0  0  0  0
M  END
