DB00853
 OpenBabel07062211533D

 20 21  0  0  0  0  0  0  0  0999 V2000
    2.2295    1.9444    0.0031 O   0  0  0  0  0  0  0  0  0  0  0  0
   -2.7507   -2.1150    0.0125 O   0  0  0  0  0  0  0  0  0  0  0  0
    0.2985    0.7937    0.0010 N   0  0  0  0  0  0  0  0  0  0  0  0
    2.2230   -0.4207   -0.0004 N   0  0  0  0  0  0  0  0  0  0  0  0
   -1.8491    1.3729    0.0005 N   0  0  0  0  0  0  0  0  0  0  0  0
    0.2380   -1.5569   -0.0017 N   0  0  0  0  0  0  0  0  0  0  0  0
    1.4907   -1.5908   -0.0019 N   0  0  0  0  0  0  0  0  0  0  0  0
   -4.1464   -0.2954   -0.0033 N   0  0  0  0  0  0  0  0  0  0  0  0
   -0.4062   -0.3750   -0.0007 C   0  0  0  0  0  0  0  0  0  0  0  0
   -1.7288    0.0069   -0.0012 C   0  0  0  0  0  0  0  0  0  0  0  0
    1.6783    0.8551    0.0014 C   0  0  0  0  0  0  0  0  0  0  0  0
   -0.6119    1.8186    0.0019 C   0  0  0  0  0  0  0  0  0  0  0  0
    3.6705   -0.5336   -0.0011 C   0  0  0  0  0  0  0  0  0  0  0  0
   -2.8648   -0.8649   -0.0029 C   0  0  0  0  0  0  0  0  0  0  0  0
   -0.3192    2.8598    0.0033 H   0  0  0  0  0  0  0  0  0  0  0  0
    4.1598    0.4439   -0.0000 H   0  0  0  0  0  0  0  0  0  0  0  0
    3.9760   -1.0858   -0.8946 H   0  0  0  0  0  0  0  0  0  0  0  0
    3.9766   -1.0881    0.8908 H   0  0  0  0  0  0  0  0  0  0  0  0
   -4.2875    0.7098   -0.0081 H   0  0  0  0  0  0  0  0  0  0  0  0
   -4.9763   -0.8790    0.0016 H   0  0  0  0  0  0  0  0  0  0  0  0
  1 11  2  0  0  0  0
  2 14  2  0  0  0  0
  3  9  1  0  0  0  0
  3 11  1  0  0  0  0
  3 12  2  0  0  0  0
  4  7  2  0  0  0  0
  4 11  1  0  0  0  0
  4 13  1  0  0  0  0
  5 10  2  0  0  0  0
  5 12  1  0  0  0  0
  6  7  1  0  0  0  0
  6  9  2  0  0  0  0
  8 14  1  0  0  0  0
  8 19  1  0  0  0  0
  8 20  1  0  0  0  0
  9 10  1  0  0  0  0
 10 14  1  0  0  0  0
 12 15  1  0  0  0  0
 13 16  1  0  0  0  0
 13 17  1  0  0  0  0
 13 18  1  0  0  0  0
M  END
