DB00442
 OpenBabel07062211533D

 35 37  0  0  1  0  0  0  0  0999 V2000
    2.3884    2.5619    0.6596 O   0  0  0  0  0  0  0  0  0  0  0  0
    3.6521   -1.6465   -1.1858 O   0  0  0  0  0  0  0  0  0  0  0  0
   -4.6294   -2.8093    0.5763 O   0  0  0  0  0  0  0  0  0  0  0  0
   -0.7123   -0.5655    0.3663 N   0  0  0  0  0  0  0  0  0  0  0  0
   -2.7244    0.7046   -0.1358 N   0  0  0  0  0  0  0  0  0  0  0  0
   -1.7000   -2.5378    0.7739 N   0  0  0  0  0  0  0  0  0  0  0  0
   -4.7565   -0.5678    0.0007 N   0  0  0  0  0  0  0  0  0  0  0  0
   -4.7550    1.7180   -0.5742 N   0  0  0  0  0  0  0  0  0  0  0  0
    0.3521    0.4282    0.2133 C   0  0  1  0  0  0  0  0  0  0  0  0
    2.7908    0.3777   -0.2846 C   0  0  2  0  0  0  0  0  0  0  0  0
    2.5068    1.1804    0.9931 C   0  0  2  0  0  0  0  0  0  0  0  0
    1.1656    0.6523    1.4970 C   0  0  0  0  0  0  0  0  0  0  0  0
    1.4017    0.1019   -0.8268 C   0  0  0  0  0  0  0  0  0  0  0  0
    3.5483   -0.9148    0.0132 C   0  0  0  0  0  0  0  0  0  0  0  0
   -2.0435   -0.3932    0.2028 C   0  0  0  0  0  0  0  0  0  0  0  0
    1.1539   -0.3075   -2.0785 C   0  0  0  0  0  0  0  0  0  0  0  0
   -0.5503   -1.8872    0.7135 C   0  0  0  0  0  0  0  0  0  0  0  0
   -2.6367   -1.5963    0.4522 C   0  0  0  0  0  0  0  0  0  0  0  0
   -4.0759   -1.7386    0.3575 C   0  0  0  0  0  0  0  0  0  0  0  0
   -4.1076    0.5599   -0.2249 C   0  0  0  0  0  0  0  0  0  0  0  0
   -0.1187    1.3781   -0.0687 H   0  0  0  0  0  0  0  0  0  0  0  0
    3.3489    0.9780   -1.0146 H   0  0  0  0  0  0  0  0  0  0  0  0
    3.2912    1.0840    1.7504 H   0  0  0  0  0  0  0  0  0  0  0  0
    0.6591    1.3656    2.1565 H   0  0  0  0  0  0  0  0  0  0  0  0
    1.3139   -0.2793    2.0552 H   0  0  0  0  0  0  0  0  0  0  0  0
    3.0283   -1.5376    0.7484 H   0  0  0  0  0  0  0  0  0  0  0  0
    4.5530   -0.7067    0.3952 H   0  0  0  0  0  0  0  0  0  0  0  0
    0.1380   -0.4591   -2.4273 H   0  0  0  0  0  0  0  0  0  0  0  0
    1.9534   -0.4791   -2.7904 H   0  0  0  0  0  0  0  0  0  0  0  0
    3.2534    2.8558    0.3268 H   0  0  0  0  0  0  0  0  0  0  0  0
    0.4217   -2.3209    0.9070 H   0  0  0  0  0  0  0  0  0  0  0  0
   -2.2907    1.6022   -0.3236 H   0  0  0  0  0  0  0  0  0  0  0  0
    4.1901   -1.1255   -1.8062 H   0  0  0  0  0  0  0  0  0  0  0  0
   -4.2457    2.5782   -0.7450 H   0  0  0  0  0  0  0  0  0  0  0  0
   -5.7640    1.7458   -0.6723 H   0  0  0  0  0  0  0  0  0  0  0  0
  1 11  1  0  0  0  0
  1 30  1  0  0  0  0
  2 14  1  0  0  0  0
  2 33  1  0  0  0  0
  3 19  2  0  0  0  0
  4  9  1  0  0  0  0
  4 15  1  0  0  0  0
  4 17  2  0  0  0  0
  5 15  2  0  0  0  0
  5 20  1  0  0  0  0
  5 32  1  0  0  0  0
  6 17  1  0  0  0  0
  6 18  2  0  0  0  0
  7 19  1  0  0  0  0
  7 20  2  0  0  0  0
  8 20  1  0  0  0  0
  8 34  1  0  0  0  0
  8 35  1  0  0  0  0
  9 12  1  0  0  0  0
  9 13  1  0  0  0  0
  9 21  1  6  0  0  0
 10 11  1  1  0  0  0
 10 13  1  0  0  0  0
 10 14  1  0  0  0  0
 10 22  1  0  0  0  0
 11 12  1  0  0  0  0
 11 23  1  1  0  0  0
 12 24  1  0  0  0  0
 12 25  1  0  0  0  0
 13 16  2  0  0  0  0
 14 26  1  0  0  0  0
 14 27  1  0  0  0  0
 15 18  1  0  0  0  0
 16 28  1  0  0  0  0
 16 29  1  0  0  0  0
 17 31  1  0  0  0  0
 18 19  1  0  0  0  0
M  END
