DB00134
 OpenBabel07062211533D

 20 19  0  0  1  0  0  0  0  0999 V2000
    1.6814   -1.2469   -0.8222 S   0  0  0  0  0  0  0  0  0  0  0  0
   -1.8276   -1.5211   -1.1524 O   0  0  0  0  0  0  0  0  0  0  0  0
   -3.0737   -0.6114    0.5084 O   0  0  0  0  0  0  0  0  0  0  0  0
   -1.7101    1.7574    0.1476 N   0  0  0  0  0  0  0  0  0  0  0  0
    0.0348    0.2175    0.9049 C   0  0  0  0  0  0  0  0  0  0  0  0
   -1.0181    0.5056   -0.1749 C   0  0  1  0  0  0  0  0  0  0  0  0
    0.7893   -1.1069    0.7548 C   0  0  0  0  0  0  0  0  0  0  0  0
   -2.0804   -0.5787   -0.2074 C   0  0  0  0  0  0  0  0  0  0  0  0
    2.7725    0.1812   -0.6321 C   0  0  0  0  0  0  0  0  0  0  0  0
    0.7429    1.0525    0.9701 H   0  0  0  0  0  0  0  0  0  0  0  0
   -0.4629    0.1850    1.8850 H   0  0  0  0  0  0  0  0  0  0  0  0
   -0.5713    0.6138   -1.1682 H   0  0  0  0  0  0  0  0  0  0  0  0
    0.0981   -1.9524    0.8296 H   0  0  0  0  0  0  0  0  0  0  0  0
    1.5081   -1.2190    1.5738 H   0  0  0  0  0  0  0  0  0  0  0  0
   -2.3572    1.9929   -0.6043 H   0  0  0  0  0  0  0  0  0  0  0  0
   -1.0343    2.5196    0.1879 H   0  0  0  0  0  0  0  0  0  0  0  0
    2.2225    1.1144   -0.7736 H   0  0  0  0  0  0  0  0  0  0  0  0
    3.5507    0.1333   -1.3992 H   0  0  0  0  0  0  0  0  0  0  0  0
    3.2587    0.1758    0.3469 H   0  0  0  0  0  0  0  0  0  0  0  0
   -2.5232   -2.2125   -1.1746 H   0  0  0  0  0  0  0  0  0  0  0  0
  1  7  1  0  0  0  0
  1  9  1  0  0  0  0
  2  8  1  0  0  0  0
  2 20  1  0  0  0  0
  3  8  2  0  0  0  0
  4  6  1  0  0  0  0
  4 15  1  0  0  0  0
  4 16  1  0  0  0  0
  5  6  1  0  0  0  0
  5  7  1  0  0  0  0
  5 10  1  0  0  0  0
  5 11  1  0  0  0  0
  6  8  1  0  0  0  0
  6 12  1  6  0  0  0
  7 13  1  0  0  0  0
  7 14  1  0  0  0  0
  9 17  1  0  0  0  0
  9 18  1  0  0  0  0
  9 19  1  0  0  0  0
M  END
