DB00637
 OpenBabel07062211533D

 65 69  0  0  1  0  0  0  0  0999 V2000
    0.3232   -4.9064   -0.4359 F   0  0  0  0  0  0  0  0  0  0  0  0
   -7.8606   -1.9722   -0.3918 O   0  0  0  0  0  0  0  0  0  0  0  0
   -1.2538    2.1146    0.2407 N   0  0  0  0  0  0  0  0  0  0  0  0
    2.3302    1.5509    0.7256 N   0  0  0  0  0  0  0  0  0  0  0  0
    4.1026    0.0081    0.6554 N   0  0  0  0  0  0  0  0  0  0  0  0
    4.2166    1.7225   -0.7546 N   0  0  0  0  0  0  0  0  0  0  0  0
    1.6177    2.7445    0.3118 C   0  0  0  0  0  0  0  0  0  0  0  0
    0.8617    2.4823   -0.9921 C   0  0  0  0  0  0  0  0  0  0  0  0
    0.6472    3.1865    1.4092 C   0  0  0  0  0  0  0  0  0  0  0  0
   -0.3557    1.5746   -0.7884 C   0  0  0  0  0  0  0  0  0  0  0  0
   -0.5621    2.2534    1.5288 C   0  0  0  0  0  0  0  0  0  0  0  0
   -2.4371    1.2665    0.3839 C   0  0  0  0  0  0  0  0  0  0  0  0
   -3.2390    1.2209   -0.9173 C   0  0  0  0  0  0  0  0  0  0  0  0
    3.5158    1.1478    0.1909 C   0  0  2  0  0  0  0  0  0  0  0  0
   -4.4741    0.3674   -0.7765 C   0  0  0  0  0  0  0  0  0  0  0  0
    5.2708   -0.1679   -0.0411 C   0  0  0  0  0  0  0  0  0  0  0  0
    3.6025   -0.8682    1.6925 C   0  0  0  0  0  0  0  0  0  0  0  0
    5.3190    0.9149   -0.9149 C   0  0  0  0  0  0  0  0  0  0  0  0
    6.2591   -1.1512    0.0163 C   0  0  0  0  0  0  0  0  0  0  0  0
    2.7249   -1.9493    1.1220 C   0  0  0  0  0  0  0  0  0  0  0  0
   -4.4030   -0.9863   -1.0675 C   0  0  0  0  0  0  0  0  0  0  0  0
   -5.6607    0.9511   -0.3591 C   0  0  0  0  0  0  0  0  0  0  0  0
    6.4107    1.0402   -1.7905 C   0  0  0  0  0  0  0  0  0  0  0  0
    7.3384   -1.0107   -0.8622 C   0  0  0  0  0  0  0  0  0  0  0  0
    7.4149    0.0646   -1.7504 C   0  0  0  0  0  0  0  0  0  0  0  0
   -5.5460   -1.7755   -0.9380 C   0  0  0  0  0  0  0  0  0  0  0  0
   -6.8035    0.1620   -0.2293 C   0  0  0  0  0  0  0  0  0  0  0  0
    3.2917   -3.1531    0.7266 C   0  0  0  0  0  0  0  0  0  0  0  0
    1.3599   -1.7281    0.9994 C   0  0  0  0  0  0  0  0  0  0  0  0
   -6.7463   -1.2013   -0.5189 C   0  0  0  0  0  0  0  0  0  0  0  0
    2.4777   -4.1552    0.1984 C   0  0  0  0  0  0  0  0  0  0  0  0
    0.5461   -2.7302    0.4713 C   0  0  0  0  0  0  0  0  0  0  0  0
    1.1049   -3.9438    0.0707 C   0  0  0  0  0  0  0  0  0  0  0  0
   -9.0544   -1.3216    0.0410 C   0  0  0  0  0  0  0  0  0  0  0  0
    2.3419    3.5537    0.1536 H   0  0  0  0  0  0  0  0  0  0  0  0
    1.5211    2.0406   -1.7487 H   0  0  0  0  0  0  0  0  0  0  0  0
    0.5203    3.4433   -1.3999 H   0  0  0  0  0  0  0  0  0  0  0  0
    0.2910    4.2001    1.1821 H   0  0  0  0  0  0  0  0  0  0  0  0
    1.1613    3.2415    2.3766 H   0  0  0  0  0  0  0  0  0  0  0  0
   -0.8374    1.5328   -1.7685 H   0  0  0  0  0  0  0  0  0  0  0  0
   -0.0314    0.5573   -0.5404 H   0  0  0  0  0  0  0  0  0  0  0  0
   -1.2463    2.6885    2.2680 H   0  0  0  0  0  0  0  0  0  0  0  0
   -0.2542    1.2760    1.9194 H   0  0  0  0  0  0  0  0  0  0  0  0
   -3.0809    1.6712    1.1759 H   0  0  0  0  0  0  0  0  0  0  0  0
   -2.1571    0.2504    0.6944 H   0  0  0  0  0  0  0  0  0  0  0  0
    1.8978    1.0294    1.4795 H   0  0  0  0  0  0  0  0  0  0  0  0
   -3.5260    2.2352   -1.2253 H   0  0  0  0  0  0  0  0  0  0  0  0
   -2.6691    0.8028   -1.7530 H   0  0  0  0  0  0  0  0  0  0  0  0
    4.4613   -1.3060    2.2161 H   0  0  0  0  0  0  0  0  0  0  0  0
    3.0805   -0.2814    2.4558 H   0  0  0  0  0  0  0  0  0  0  0  0
    6.2187   -1.9802    0.7119 H   0  0  0  0  0  0  0  0  0  0  0  0
   -3.4726   -1.4440   -1.3915 H   0  0  0  0  0  0  0  0  0  0  0  0
   -5.7135    2.0117   -0.1298 H   0  0  0  0  0  0  0  0  0  0  0  0
    6.4794    1.8721   -2.4842 H   0  0  0  0  0  0  0  0  0  0  0  0
    8.1347   -1.7510   -0.8502 H   0  0  0  0  0  0  0  0  0  0  0  0
    8.2668    0.1472   -2.4205 H   0  0  0  0  0  0  0  0  0  0  0  0
   -5.4950   -2.8371   -1.1639 H   0  0  0  0  0  0  0  0  0  0  0  0
   -7.7020    0.6717    0.1012 H   0  0  0  0  0  0  0  0  0  0  0  0
    4.3545   -3.3423    0.8321 H   0  0  0  0  0  0  0  0  0  0  0  0
    0.8993   -0.8046    1.3285 H   0  0  0  0  0  0  0  0  0  0  0  0
    2.9119   -5.1015   -0.1105 H   0  0  0  0  0  0  0  0  0  0  0  0
   -0.5237   -2.5672    0.3767 H   0  0  0  0  0  0  0  0  0  0  0  0
   -9.3840   -0.5649   -0.6791 H   0  0  0  0  0  0  0  0  0  0  0  0
   -9.8396   -2.0834    0.0860 H   0  0  0  0  0  0  0  0  0  0  0  0
   -8.9465   -0.9137    1.0517 H   0  0  0  0  0  0  0  0  0  0  0  0
  1 33  1  0  0  0  0
  2 30  1  0  0  0  0
  2 34  1  0  0  0  0
  3 10  1  0  0  0  0
  3 11  1  0  0  0  0
  3 12  1  0  0  0  0
  4  7  1  0  0  0  0
  4 46  1  0  0  0  0
  5 14  1  0  0  0  0
  5 16  2  0  0  0  0
  5 17  1  0  0  0  0
  6 14  1  0  0  0  0
  6 18  2  0  0  0  0
  7  8  1  0  0  0  0
  7  9  1  0  0  0  0
  7 35  1  0  0  0  0
  8 10  1  0  0  0  0
  8 36  1  0  0  0  0
  8 37  1  0  0  0  0
  9 11  1  0  0  0  0
  9 38  1  0  0  0  0
  9 39  1  0  0  0  0
 10 40  1  0  0  0  0
 10 41  1  0  0  0  0
 11 42  1  0  0  0  0
 11 43  1  0  0  0  0
 12 13  1  0  0  0  0
 12 44  1  0  0  0  0
 12 45  1  0  0  0  0
 13 15  1  0  0  0  0
 13 47  1  0  0  0  0
 13 48  1  0  0  0  0
 14  4  1  1  0  0  0
 15 21  2  0  0  0  0
 15 22  1  0  0  0  0
 16 18  1  0  0  0  0
 16 19  1  0  0  0  0
 17 20  1  0  0  0  0
 17 49  1  0  0  0  0
 17 50  1  0  0  0  0
 18 23  1  0  0  0  0
 19 24  2  0  0  0  0
 19 51  1  0  0  0  0
 20 28  2  0  0  0  0
 20 29  1  0  0  0  0
 21 26  1  0  0  0  0
 21 52  1  0  0  0  0
 22 27  2  0  0  0  0
 22 53  1  0  0  0  0
 23 25  2  0  0  0  0
 23 54  1  0  0  0  0
 24 25  1  0  0  0  0
 24 55  1  0  0  0  0
 25 56  1  0  0  0  0
 26 30  2  0  0  0  0
 26 57  1  0  0  0  0
 27 30  1  0  0  0  0
 27 58  1  0  0  0  0
 28 31  1  0  0  0  0
 28 59  1  0  0  0  0
 29 32  2  0  0  0  0
 29 60  1  0  0  0  0
 31 33  2  0  0  0  0
 31 61  1  0  0  0  0
 32 33  1  0  0  0  0
 32 62  1  0  0  0  0
 34 63  1  0  0  0  0
 34 64  1  0  0  0  0
 34 65  1  0  0  0  0
M  END
