DB00650
 OpenBabel07062211533D

 57 59  0  0  1  0  0  0  0  0999 V2000
    5.2264   -2.7067   -0.9384 O   0  0  0  0  0  0  0  0  0  0  0  0
    3.3754   -0.2893   -3.4515 O   0  0  0  0  0  0  0  0  0  0  0  0
   -3.5887   -1.2267    2.3065 O   0  0  0  0  0  0  0  0  0  0  0  0
   -7.7315   -2.6423   -0.1918 O   0  0  0  0  0  0  0  0  0  0  0  0
   -6.0278   -2.2814   -1.6470 O   0  0  0  0  0  0  0  0  0  0  0  0
   -7.9263    3.0521   -0.5217 O   0  0  0  0  0  0  0  0  0  0  0  0
   -8.1407    2.2963    1.6068 O   0  0  0  0  0  0  0  0  0  0  0  0
    4.5238    0.0714   -1.4343 N   0  0  0  0  0  0  0  0  0  0  0  0
    5.5546    1.8027    0.4696 N   0  0  0  0  0  0  0  0  0  0  0  0
    1.5498    0.4746   -1.0249 N   0  0  0  0  0  0  0  0  0  0  0  0
    6.9046    0.0135    1.3344 N   0  0  0  0  0  0  0  0  0  0  0  0
    7.0038   -2.1249    0.3639 N   0  0  0  0  0  0  0  0  0  0  0  0
   -4.5432   -1.0167    0.2036 N   0  0  0  0  0  0  0  0  0  0  0  0
    8.5023   -1.4738    2.0564 N   0  0  0  0  0  0  0  0  0  0  0  0
    3.8110    1.3442   -1.1600 C   0  0  2  0  0  0  0  0  0  0  0  0
    4.7558    2.3993   -0.5744 C   0  0  0  0  0  0  0  0  0  0  0  0
    2.5957    1.0945   -0.2592 C   0  0  0  0  0  0  0  0  0  0  0  0
    5.4678   -0.3669   -0.4930 C   0  0  0  0  0  0  0  0  0  0  0  0
    5.9619    0.4819    0.4453 C   0  0  0  0  0  0  0  0  0  0  0  0
    5.8874   -1.8240   -0.3996 C   0  0  0  0  0  0  0  0  0  0  0  0
    4.1994   -0.6171   -2.6021 C   0  0  0  0  0  0  0  0  0  0  0  0
    0.3127    0.1177   -0.5023 C   0  0  0  0  0  0  0  0  0  0  0  0
    7.4451   -1.2405    1.2165 C   0  0  0  0  0  0  0  0  0  0  0  0
   -0.6437   -0.4820   -1.3217 C   0  0  0  0  0  0  0  0  0  0  0  0
    0.0277    0.3577    0.8420 C   0  0  0  0  0  0  0  0  0  0  0  0
   -5.8933   -1.3484    0.5986 C   0  0  1  0  0  0  0  0  0  0  0  0
   -6.6978   -0.1216    1.0457 C   0  0  0  0  0  0  0  0  0  0  0  0
   -2.1700   -0.6013    0.5472 C   0  0  0  0  0  0  0  0  0  0  0  0
   -1.8849   -0.8415   -0.7969 C   0  0  0  0  0  0  0  0  0  0  0  0
   -1.2136   -0.0019    1.3667 C   0  0  0  0  0  0  0  0  0  0  0  0
   -3.4642   -0.9767    1.0944 C   0  0  0  0  0  0  0  0  0  0  0  0
   -6.9213    0.9565   -0.0224 C   0  0  0  0  0  0  0  0  0  0  0  0
   -6.5299   -2.1140   -0.5431 C   0  0  0  0  0  0  0  0  0  0  0  0
   -7.7091    2.1507    0.4716 C   0  0  0  0  0  0  0  0  0  0  0  0
    3.4502    1.7507   -2.1150 H   0  0  0  0  0  0  0  0  0  0  0  0
    5.4315    2.7601   -1.3594 H   0  0  0  0  0  0  0  0  0  0  0  0
    4.2091    3.2671   -0.1912 H   0  0  0  0  0  0  0  0  0  0  0  0
    2.2338    2.0555    0.1261 H   0  0  0  0  0  0  0  0  0  0  0  0
    2.8736    0.4667    0.5958 H   0  0  0  0  0  0  0  0  0  0  0  0
    5.9921    2.4013    1.1618 H   0  0  0  0  0  0  0  0  0  0  0  0
    1.6996    0.2985   -2.0123 H   0  0  0  0  0  0  0  0  0  0  0  0
    7.2639    0.6803    2.0085 H   0  0  0  0  0  0  0  0  0  0  0  0
    4.8202   -1.5045   -2.7754 H   0  0  0  0  0  0  0  0  0  0  0  0
   -5.8210   -2.0461    1.4424 H   0  0  0  0  0  0  0  0  0  0  0  0
   -0.4314   -0.6812   -2.3691 H   0  0  0  0  0  0  0  0  0  0  0  0
    0.7424    0.8233    1.5143 H   0  0  0  0  0  0  0  0  0  0  0  0
   -7.6779   -0.4520    1.4140 H   0  0  0  0  0  0  0  0  0  0  0  0
   -6.1931    0.3391    1.9053 H   0  0  0  0  0  0  0  0  0  0  0  0
   -2.5881   -1.3342   -1.4620 H   0  0  0  0  0  0  0  0  0  0  0  0
   -1.4180    0.1978    2.4155 H   0  0  0  0  0  0  0  0  0  0  0  0
   -4.4108   -0.7269   -0.7598 H   0  0  0  0  0  0  0  0  0  0  0  0
   -5.9543    1.3263   -0.3810 H   0  0  0  0  0  0  0  0  0  0  0  0
   -7.4690    0.5261   -0.8679 H   0  0  0  0  0  0  0  0  0  0  0  0
    8.8274   -0.7670    2.7071 H   0  0  0  0  0  0  0  0  0  0  0  0
    8.9881   -2.3641    2.0542 H   0  0  0  0  0  0  0  0  0  0  0  0
   -8.1356   -3.1516   -0.9265 H   0  0  0  0  0  0  0  0  0  0  0  0
   -8.4522    3.8193   -0.2100 H   0  0  0  0  0  0  0  0  0  0  0  0
  1 20  2  0  0  0  0
  2 21  2  0  0  0  0
  3 31  2  0  0  0  0
  4 33  1  0  0  0  0
  4 56  1  0  0  0  0
  5 33  2  0  0  0  0
  6 34  1  0  0  0  0
  6 57  1  0  0  0  0
  7 34  2  0  0  0  0
  8 15  1  0  0  0  0
  8 18  1  0  0  0  0
  8 21  1  0  0  0  0
  9 16  1  0  0  0  0
  9 19  1  0  0  0  0
  9 40  1  0  0  0  0
 10 17  1  0  0  0  0
 10 22  1  0  0  0  0
 10 41  1  0  0  0  0
 11 19  1  0  0  0  0
 11 23  2  0  0  0  0
 11 42  1  0  0  0  0
 12 20  1  0  0  0  0
 12 23  1  0  0  0  0
 13 26  1  0  0  0  0
 13 31  1  0  0  0  0
 13 51  1  0  0  0  0
 14 23  1  0  0  0  0
 14 54  1  0  0  0  0
 14 55  1  0  0  0  0
 15 16  1  0  0  0  0
 15 17  1  0  0  0  0
 15 35  1  6  0  0  0
 16 36  1  0  0  0  0
 16 37  1  0  0  0  0
 17 38  1  0  0  0  0
 17 39  1  0  0  0  0
 18 19  2  0  0  0  0
 18 20  1  0  0  0  0
 21 43  1  0  0  0  0
 22 24  2  0  0  0  0
 22 25  1  0  0  0  0
 24 29  1  0  0  0  0
 24 45  1  0  0  0  0
 25 30  2  0  0  0  0
 25 46  1  0  0  0  0
 26 27  1  0  0  0  0
 26 33  1  0  0  0  0
 26 44  1  1  0  0  0
 27 32  1  0  0  0  0
 27 47  1  0  0  0  0
 27 48  1  0  0  0  0
 28 29  2  0  0  0  0
 28 30  1  0  0  0  0
 28 31  1  0  0  0  0
 29 49  1  0  0  0  0
 30 50  1  0  0  0  0
 32 34  1  0  0  0  0
 32 52  1  0  0  0  0
 32 53  1  0  0  0  0
M  END
