DB00276
 OpenBabel07062211533D

 47 50  0  0  0  0  0  0  0  0999 V2000
    5.6325   -0.2637    0.6750 S   0  0  0  0  0  0  0  0  0  0  0  0
    1.3729   -0.7944   -2.8177 O   0  0  0  0  0  0  0  0  0  0  0  0
    6.9083   -0.8703    1.0065 O   0  0  0  0  0  0  0  0  0  0  0  0
    5.4598    0.4538   -0.5725 O   0  0  0  0  0  0  0  0  0  0  0  0
   -0.7589   -0.2824   -1.0537 N   0  0  0  0  0  0  0  0  0  0  0  0
   -4.3590    0.5653    0.9184 N   0  0  0  0  0  0  0  0  0  0  0  0
    4.3975   -1.4465    0.8809 N   0  0  0  0  0  0  0  0  0  0  0  0
   -1.9798    0.0051   -0.3849 C   0  0  0  0  0  0  0  0  0  0  0  0
   -2.8465   -1.0386   -0.0450 C   0  0  0  0  0  0  0  0  0  0  0  0
   -2.3039    1.3291   -0.0723 C   0  0  0  0  0  0  0  0  0  0  0  0
   -4.0420   -0.7085    0.6151 C   0  0  0  0  0  0  0  0  0  0  0  0
   -3.5207    1.5668    0.5889 C   0  0  0  0  0  0  0  0  0  0  0  0
    0.5283   -0.5726   -0.5829 C   0  0  0  0  0  0  0  0  0  0  0  0
   -2.5460   -2.3785   -0.3468 C   0  0  0  0  0  0  0  0  0  0  0  0
   -1.4516    2.3974   -0.4018 C   0  0  0  0  0  0  0  0  0  0  0  0
    1.5814   -0.8252   -1.4710 C   0  0  0  0  0  0  0  0  0  0  0  0
    3.0912   -1.1509    0.3868 C   0  0  0  0  0  0  0  0  0  0  0  0
    0.7717   -0.6125    0.7955 C   0  0  0  0  0  0  0  0  0  0  0  0
   -4.9091   -1.7431    0.9561 C   0  0  0  0  0  0  0  0  0  0  0  0
   -3.8489    2.8829    0.9028 C   0  0  0  0  0  0  0  0  0  0  0  0
    2.8578   -1.1131   -0.9878 C   0  0  0  0  0  0  0  0  0  0  0  0
    2.0480   -0.9005    1.2785 C   0  0  0  0  0  0  0  0  0  0  0  0
   -3.4297   -3.3944    0.0050 C   0  0  0  0  0  0  0  0  0  0  0  0
   -1.8031    3.7042   -0.0768 C   0  0  0  0  0  0  0  0  0  0  0  0
   -4.6137   -3.0756    0.6578 C   0  0  0  0  0  0  0  0  0  0  0  0
   -3.0043    3.9470    0.5769 C   0  0  0  0  0  0  0  0  0  0  0  0
    5.2283    0.8472    2.0042 C   0  0  0  0  0  0  0  0  0  0  0  0
    1.5577    0.4585   -3.4728 C   0  0  0  0  0  0  0  0  0  0  0  0
   -0.8604   -0.3077   -2.0640 H   0  0  0  0  0  0  0  0  0  0  0  0
   -1.6314   -2.6623   -0.8608 H   0  0  0  0  0  0  0  0  0  0  0  0
   -0.5071    2.2435   -0.9169 H   0  0  0  0  0  0  0  0  0  0  0  0
   -0.0202   -0.4215    1.5152 H   0  0  0  0  0  0  0  0  0  0  0  0
   -5.8433   -1.5190    1.4680 H   0  0  0  0  0  0  0  0  0  0  0  0
   -4.7849    3.0993    1.4150 H   0  0  0  0  0  0  0  0  0  0  0  0
    3.6622   -1.3204   -1.6896 H   0  0  0  0  0  0  0  0  0  0  0  0
    2.2189   -0.9261    2.3516 H   0  0  0  0  0  0  0  0  0  0  0  0
   -3.1960   -4.4282   -0.2300 H   0  0  0  0  0  0  0  0  0  0  0  0
   -1.1438    4.5276   -0.3333 H   0  0  0  0  0  0  0  0  0  0  0  0
   -5.3104   -3.8606    0.9365 H   0  0  0  0  0  0  0  0  0  0  0  0
   -3.2884    4.9631    0.8348 H   0  0  0  0  0  0  0  0  0  0  0  0
    4.4003   -1.9261    1.7912 H   0  0  0  0  0  0  0  0  0  0  0  0
    5.2340    0.2938    2.9451 H   0  0  0  0  0  0  0  0  0  0  0  0
    5.9910    1.6287    2.0317 H   0  0  0  0  0  0  0  0  0  0  0  0
    4.2514    1.2956    1.8162 H   0  0  0  0  0  0  0  0  0  0  0  0
    2.5975    0.7880   -3.3801 H   0  0  0  0  0  0  0  0  0  0  0  0
    0.8862    1.2178   -3.0597 H   0  0  0  0  0  0  0  0  0  0  0  0
    1.3260    0.3279   -4.5333 H   0  0  0  0  0  0  0  0  0  0  0  0
  1  3  2  0  0  0  0
  1  4  2  0  0  0  0
  1  7  1  0  0  0  0
  1 27  1  0  0  0  0
  2 16  1  0  0  0  0
  2 28  1  0  0  0  0
  5  8  1  0  0  0  0
  5 13  1  0  0  0  0
  5 29  1  0  0  0  0
  6 11  2  0  0  0  0
  6 12  1  0  0  0  0
  7 17  1  0  0  0  0
  7 41  1  0  0  0  0
  8  9  2  0  0  0  0
  8 10  1  0  0  0  0
  9 11  1  0  0  0  0
  9 14  1  0  0  0  0
 10 12  2  0  0  0  0
 10 15  1  0  0  0  0
 11 19  1  0  0  0  0
 12 20  1  0  0  0  0
 13 16  2  0  0  0  0
 13 18  1  0  0  0  0
 14 23  2  0  0  0  0
 14 30  1  0  0  0  0
 15 24  2  0  0  0  0
 15 31  1  0  0  0  0
 16 21  1  0  0  0  0
 17 21  2  0  0  0  0
 17 22  1  0  0  0  0
 18 22  2  0  0  0  0
 18 32  1  0  0  0  0
 19 25  2  0  0  0  0
 19 33  1  0  0  0  0
 20 26  2  0  0  0  0
 20 34  1  0  0  0  0
 21 35  1  0  0  0  0
 22 36  1  0  0  0  0
 23 25  1  0  0  0  0
 23 37  1  0  0  0  0
 24 26  1  0  0  0  0
 24 38  1  0  0  0  0
 25 39  1  0  0  0  0
 26 40  1  0  0  0  0
 27 42  1  0  0  0  0
 27 43  1  0  0  0  0
 27 44  1  0  0  0  0
 28 45  1  0  0  0  0
 28 46  1  0  0  0  0
 28 47  1  0  0  0  0
M  END
