DB00349
 OpenBabel07062211533D

 34 36  0  0  0  0  0  0  0  0999 V2000
    0.0571   -4.2586    1.7352 Cl  0  0  0  0  0  0  0  0  0  0  0  0
   -0.8687    2.9820    0.4210 O   0  0  0  0  0  0  0  0  0  0  0  0
    2.7711    3.0832   -0.4313 O   0  0  0  0  0  0  0  0  0  0  0  0
   -0.5095    0.6654    0.3670 N   0  0  0  0  0  0  0  0  0  0  0  0
    2.4274    0.7798   -0.4706 N   0  0  0  0  0  0  0  0  0  0  0  0
    0.4188   -0.4393    0.4706 C   0  0  0  0  0  0  0  0  0  0  0  0
    1.7743   -0.3920    0.0517 C   0  0  0  0  0  0  0  0  0  0  0  0
    1.2359    2.1946    1.1359 C   0  0  0  0  0  0  0  0  0  0  0  0
   -0.1570    1.9951    0.6205 C   0  0  0  0  0  0  0  0  0  0  0  0
    2.2100    2.0744    0.0023 C   0  0  0  0  0  0  0  0  0  0  0  0
   -1.8620    0.3571   -0.0398 C   0  0  0  0  0  0  0  0  0  0  0  0
   -0.0734   -1.6568    1.0072 C   0  0  0  0  0  0  0  0  0  0  0  0
    2.5344   -1.5847    0.1166 C   0  0  0  0  0  0  0  0  0  0  0  0
    3.4720    0.5977   -1.4795 C   0  0  0  0  0  0  0  0  0  0  0  0
    0.7087   -2.8068    1.0822 C   0  0  0  0  0  0  0  0  0  0  0  0
    2.0123   -2.7736    0.6239 C   0  0  0  0  0  0  0  0  0  0  0  0
   -2.0979   -0.7256   -0.8787 C   0  0  0  0  0  0  0  0  0  0  0  0
   -2.9126    1.1462    0.4133 C   0  0  0  0  0  0  0  0  0  0  0  0
   -3.4033   -1.0234   -1.2704 C   0  0  0  0  0  0  0  0  0  0  0  0
   -4.2178    0.8483    0.0220 C   0  0  0  0  0  0  0  0  0  0  0  0
   -4.4631   -0.2365   -0.8200 C   0  0  0  0  0  0  0  0  0  0  0  0
    1.3108    3.2031    1.5601 H   0  0  0  0  0  0  0  0  0  0  0  0
    1.4749    1.5052    1.9515 H   0  0  0  0  0  0  0  0  0  0  0  0
   -1.0846   -1.7075    1.4105 H   0  0  0  0  0  0  0  0  0  0  0  0
    3.5762   -1.6050   -0.1963 H   0  0  0  0  0  0  0  0  0  0  0  0
    3.2016   -0.2058   -2.1718 H   0  0  0  0  0  0  0  0  0  0  0  0
    4.4199    0.3787   -0.9783 H   0  0  0  0  0  0  0  0  0  0  0  0
    3.6046    1.5126   -2.0654 H   0  0  0  0  0  0  0  0  0  0  0  0
    2.6447   -3.6563    0.6664 H   0  0  0  0  0  0  0  0  0  0  0  0
   -1.3018   -1.3308   -1.3026 H   0  0  0  0  0  0  0  0  0  0  0  0
   -2.7847    1.9569    1.1225 H   0  0  0  0  0  0  0  0  0  0  0  0
   -3.5935   -1.8603   -1.9360 H   0  0  0  0  0  0  0  0  0  0  0  0
   -5.0453    1.4513    0.3844 H   0  0  0  0  0  0  0  0  0  0  0  0
   -5.4796   -0.4687   -1.1243 H   0  0  0  0  0  0  0  0  0  0  0  0
  1 15  1  0  0  0  0
  2  9  2  0  0  0  0
  3 10  2  0  0  0  0
  4  6  1  0  0  0  0
  4  9  1  0  0  0  0
  4 11  1  0  0  0  0
  5  7  1  0  0  0  0
  5 10  1  0  0  0  0
  5 14  1  0  0  0  0
  6  7  2  0  0  0  0
  6 12  1  0  0  0  0
  7 13  1  0  0  0  0
  8  9  1  0  0  0  0
  8 10  1  0  0  0  0
  8 22  1  0  0  0  0
  8 23  1  0  0  0  0
 11 17  2  0  0  0  0
 11 18  1  0  0  0  0
 12 15  2  0  0  0  0
 12 24  1  0  0  0  0
 13 16  2  0  0  0  0
 13 25  1  0  0  0  0
 14 26  1  0  0  0  0
 14 27  1  0  0  0  0
 14 28  1  0  0  0  0
 15 16  1  0  0  0  0
 16 29  1  0  0  0  0
 17 19  1  0  0  0  0
 17 30  1  0  0  0  0
 18 20  2  0  0  0  0
 18 31  1  0  0  0  0
 19 21  2  0  0  0  0
 19 32  1  0  0  0  0
 20 21  1  0  0  0  0
 20 33  1  0  0  0  0
 21 34  1  0  0  0  0
M  END
