DB00755
 OpenBabel07062211533D

 50 50  0  0  0  0  0  0  0  0999 V2000
    8.7356    1.6725    1.3287 O   0  0  0  0  0  0  0  0  0  0  0  0
    8.8335    0.1055   -0.3218 O   0  0  0  0  0  0  0  0  0  0  0  0
   -4.0784   -0.7921    0.3912 C   0  0  0  0  0  0  0  0  0  0  0  0
   -5.4815   -0.1394    0.2551 C   0  0  0  0  0  0  0  0  0  0  0  0
   -5.4608    1.3416    0.5880 C   0  0  0  0  0  0  0  0  0  0  0  0
   -2.9769    0.0895   -0.2432 C   0  0  0  0  0  0  0  0  0  0  0  0
   -4.5227    2.0755   -0.3585 C   0  0  0  0  0  0  0  0  0  0  0  0
   -3.1991    1.3789   -0.6021 C   0  0  0  0  0  0  0  0  0  0  0  0
   -4.1839   -2.1761   -0.2950 C   0  0  0  0  0  0  0  0  0  0  0  0
   -3.7682   -1.0093    1.8900 C   0  0  0  0  0  0  0  0  0  0  0  0
   -1.6801   -0.5466   -0.4066 C   0  0  0  0  0  0  0  0  0  0  0  0
   -2.2010    2.2932   -1.2746 C   0  0  0  0  0  0  0  0  0  0  0  0
   -0.5181    0.0787   -0.1571 C   0  0  0  0  0  0  0  0  0  0  0  0
    0.8210   -0.4938   -0.2992 C   0  0  0  0  0  0  0  0  0  0  0  0
    0.9181   -1.9260   -0.7730 C   0  0  0  0  0  0  0  0  0  0  0  0
    1.9643    0.1755   -0.0356 C   0  0  0  0  0  0  0  0  0  0  0  0
    3.3334   -0.2960   -0.1430 C   0  0  0  0  0  0  0  0  0  0  0  0
    4.3905    0.4804    0.1530 C   0  0  0  0  0  0  0  0  0  0  0  0
    5.8073    0.1058    0.0734 C   0  0  0  0  0  0  0  0  0  0  0  0
    6.1259   -1.3010   -0.3635 C   0  0  0  0  0  0  0  0  0  0  0  0
    6.7247    1.0329    0.4156 C   0  0  0  0  0  0  0  0  0  0  0  0
    8.1929    0.8473    0.4013 C   0  0  0  0  0  0  0  0  0  0  0  0
   -6.2057   -0.6480    0.9041 H   0  0  0  0  0  0  0  0  0  0  0  0
   -5.8531   -0.2602   -0.7721 H   0  0  0  0  0  0  0  0  0  0  0  0
   -5.1471    1.4986    1.6262 H   0  0  0  0  0  0  0  0  0  0  0  0
   -6.4703    1.7598    0.5009 H   0  0  0  0  0  0  0  0  0  0  0  0
   -4.3433    3.0779    0.0502 H   0  0  0  0  0  0  0  0  0  0  0  0
   -5.0219    2.2108   -1.3268 H   0  0  0  0  0  0  0  0  0  0  0  0
   -4.2645   -2.0765   -1.3837 H   0  0  0  0  0  0  0  0  0  0  0  0
   -3.3240   -2.8173   -0.0734 H   0  0  0  0  0  0  0  0  0  0  0  0
   -5.0710   -2.7183    0.0544 H   0  0  0  0  0  0  0  0  0  0  0  0
   -4.5701   -1.5711    2.3826 H   0  0  0  0  0  0  0  0  0  0  0  0
   -2.8420   -1.5791    2.0292 H   0  0  0  0  0  0  0  0  0  0  0  0
   -3.6482   -0.0602    2.4237 H   0  0  0  0  0  0  0  0  0  0  0  0
   -1.6820   -1.5608   -0.7885 H   0  0  0  0  0  0  0  0  0  0  0  0
   -1.4523    1.7630   -1.8685 H   0  0  0  0  0  0  0  0  0  0  0  0
   -1.7086    2.9362   -0.5385 H   0  0  0  0  0  0  0  0  0  0  0  0
   -2.7168    2.9461   -1.9892 H   0  0  0  0  0  0  0  0  0  0  0  0
   -0.5182    1.0845    0.2570 H   0  0  0  0  0  0  0  0  0  0  0  0
    0.4801   -2.0188   -1.7739 H   0  0  0  0  0  0  0  0  0  0  0  0
    1.9171   -2.3538   -0.8405 H   0  0  0  0  0  0  0  0  0  0  0  0
    0.3626   -2.5832   -0.0929 H   0  0  0  0  0  0  0  0  0  0  0  0
    1.8686    1.2076    0.3043 H   0  0  0  0  0  0  0  0  0  0  0  0
    3.5120   -1.3060   -0.4836 H   0  0  0  0  0  0  0  0  0  0  0  0
    4.1962    1.4995    0.4886 H   0  0  0  0  0  0  0  0  0  0  0  0
    5.8348   -1.4531   -1.4084 H   0  0  0  0  0  0  0  0  0  0  0  0
    7.1826   -1.5592   -0.2786 H   0  0  0  0  0  0  0  0  0  0  0  0
    5.5945   -2.0292    0.2600 H   0  0  0  0  0  0  0  0  0  0  0  0
    6.4005    2.0154    0.7561 H   0  0  0  0  0  0  0  0  0  0  0  0
    9.7134    1.5987    1.3582 H   0  0  0  0  0  0  0  0  0  0  0  0
  1 22  1  0  0  0  0
  1 50  1  0  0  0  0
  2 22  2  0  0  0  0
  3  4  1  0  0  0  0
  3  6  1  0  0  0  0
  3  9  1  0  0  0  0
  3 10  1  0  0  0  0
  4  5  1  0  0  0  0
  4 23  1  0  0  0  0
  4 24  1  0  0  0  0
  5  7  1  0  0  0  0
  5 25  1  0  0  0  0
  5 26  1  0  0  0  0
  6  8  2  0  0  0  0
  6 11  1  0  0  0  0
  7  8  1  0  0  0  0
  7 27  1  0  0  0  0
  7 28  1  0  0  0  0
  8 12  1  0  0  0  0
  9 29  1  0  0  0  0
  9 30  1  0  0  0  0
  9 31  1  0  0  0  0
 10 32  1  0  0  0  0
 10 33  1  0  0  0  0
 10 34  1  0  0  0  0
 11 13  2  0  0  0  0
 11 35  1  0  0  0  0
 12 36  1  0  0  0  0
 12 37  1  0  0  0  0
 12 38  1  0  0  0  0
 13 14  1  0  0  0  0
 13 39  1  0  0  0  0
 14 15  1  0  0  0  0
 14 16  2  0  0  0  0
 15 40  1  0  0  0  0
 15 41  1  0  0  0  0
 15 42  1  0  0  0  0
 16 17  1  0  0  0  0
 16 43  1  0  0  0  0
 17 18  2  0  0  0  0
 17 44  1  0  0  0  0
 18 19  1  0  0  0  0
 18 45  1  0  0  0  0
 19 20  1  0  0  0  0
 19 21  2  0  0  0  0
 20 46  1  0  0  0  0
 20 47  1  0  0  0  0
 20 48  1  0  0  0  0
 21 22  1  0  0  0  0
 21 49  1  0  0  0  0
M  END
