DB00686
 OpenBabel07062211533D

 53 54  0  0  1  0  0  0  0  0999 V2000
    4.9245    1.4523    0.7600 S   0  0  0  0  0  0  0  0  0  0  0  0
   -4.0201    2.8102   -0.2015 S   0  0  0  0  0  0  0  0  0  0  0  0
   -2.8441   -2.1645   -2.0651 S   0  0  0  0  0  0  0  0  0  0  0  0
    2.2732   -2.2227    1.9319 S   0  0  0  0  0  0  0  0  0  0  0  0
    0.1181   -0.0233    0.2998 O   0  0  0  0  0  0  0  0  0  0  0  0
   -1.4743   -0.0790    2.0542 O   0  0  0  0  0  0  0  0  0  0  0  0
    1.6341   -0.4947   -2.1328 O   0  0  0  0  0  0  0  0  0  0  0  0
    3.3909    1.5632    0.2153 O   0  0  0  0  0  0  0  0  0  0  0  0
   -2.8094    2.1001    0.6307 O   0  0  0  0  0  0  0  0  0  0  0  0
   -2.1252   -0.8712   -1.3785 O   0  0  0  0  0  0  0  0  0  0  0  0
    2.3117   -1.9232    0.3282 O   0  0  0  0  0  0  0  0  0  0  0  0
   -4.3129   -0.2399    1.4588 O   0  0  0  0  0  0  0  0  0  0  0  0
    3.9345    0.0659   -2.2404 O   0  0  0  0  0  0  0  0  0  0  0  0
    5.5501    2.9267    0.4496 O   0  0  0  0  0  0  0  0  0  0  0  0
   -4.5671    3.9578    0.8208 O   0  0  0  0  0  0  0  0  0  0  0  0
   -1.6269   -2.9030   -2.8616 O   0  0  0  0  0  0  0  0  0  0  0  0
    1.4961   -3.6532    2.0369 O   0  0  0  0  0  0  0  0  0  0  0  0
    5.6449    0.4835   -0.0450 O   0  0  0  0  0  0  0  0  0  0  0  0
    4.8611    1.2992    2.2016 O   0  0  0  0  0  0  0  0  0  0  0  0
   -5.0862    1.8464   -0.4019 O   0  0  0  0  0  0  0  0  0  0  0  0
   -3.4252    3.4862   -1.3394 O   0  0  0  0  0  0  0  0  0  0  0  0
   -3.2626   -3.0467   -0.9916 O   0  0  0  0  0  0  0  0  0  0  0  0
   -3.8073   -1.7055   -3.0487 O   0  0  0  0  0  0  0  0  0  0  0  0
    1.4506   -1.2194    2.5817 O   0  0  0  0  0  0  0  0  0  0  0  0
    3.6414   -2.4358    2.3655 O   0  0  0  0  0  0  0  0  0  0  0  0
    1.1324    0.8628   -0.1675 C   0  0  1  0  0  0  0  0  0  0  0  0
    2.4831    0.4882    0.4464 C   0  0  1  0  0  0  0  0  0  0  0  0
   -1.9932    1.1217   -0.0106 C   0  0  1  0  0  0  0  0  0  0  0  0
   -0.9119    0.6835    0.9830 C   0  0  2  0  0  0  0  0  0  0  0  0
   -2.8653   -0.0517   -0.4764 C   0  0  2  0  0  0  0  0  0  0  0  0
    3.0462   -0.8031   -0.1617 C   0  0  2  0  0  0  0  0  0  0  0  0
   -3.3196   -0.9222    0.6972 C   0  0  1  0  0  0  0  0  0  0  0  0
    1.1695    0.7810   -1.6904 C   0  0  0  0  0  0  0  0  0  0  0  0
    2.9569   -0.8120   -1.6915 C   0  0  1  0  0  0  0  0  0  0  0  0
   -2.1569   -1.2580    1.6259 C   0  0  0  0  0  0  0  0  0  0  0  0
    0.9093    1.9093    0.0804 H   0  0  0  0  0  0  0  0  0  0  0  0
    2.3742    0.4471    1.5262 H   0  0  0  0  0  0  0  0  0  0  0  0
   -1.5228    1.5930   -0.8790 H   0  0  0  0  0  0  0  0  0  0  0  0
   -0.5002    1.5642    1.4913 H   0  0  0  0  0  0  0  0  0  0  0  0
   -3.7274    0.2790   -1.0475 H   0  0  0  0  0  0  0  0  0  0  0  0
    4.0731   -1.0053    0.1275 H   0  0  0  0  0  0  0  0  0  0  0  0
   -3.8560   -1.8199    0.4435 H   0  0  0  0  0  0  0  0  0  0  0  0
    1.8042    1.5658   -2.1169 H   0  0  0  0  0  0  0  0  0  0  0  0
    0.1703    0.9072   -2.1152 H   0  0  0  0  0  0  0  0  0  0  0  0
    3.1726   -1.8163   -2.0703 H   0  0  0  0  0  0  0  0  0  0  0  0
   -2.5229   -1.7523    2.5321 H   0  0  0  0  0  0  0  0  0  0  0  0
   -1.4434   -1.9369    1.1457 H   0  0  0  0  0  0  0  0  0  0  0  0
   -4.5660   -0.8098    2.2050 H   0  0  0  0  0  0  0  0  0  0  0  0
    3.9664    0.8735   -1.7039 H   0  0  0  0  0  0  0  0  0  0  0  0
    5.3827    3.2724   -0.4585 H   0  0  0  0  0  0  0  0  0  0  0  0
   -4.7274    3.6563    1.7459 H   0  0  0  0  0  0  0  0  0  0  0  0
   -1.0586   -2.3092   -3.4064 H   0  0  0  0  0  0  0  0  0  0  0  0
    0.6608   -3.7178    1.5170 H   0  0  0  0  0  0  0  0  0  0  0  0
  1  8  1  0  0  0  0
  1 14  1  0  0  0  0
  1 18  2  0  0  0  0
  1 19  2  0  0  0  0
  2  9  1  0  0  0  0
  2 15  1  0  0  0  0
  2 20  2  0  0  0  0
  2 21  2  0  0  0  0
  3 10  1  0  0  0  0
  3 16  1  0  0  0  0
  3 22  2  0  0  0  0
  3 23  2  0  0  0  0
  4 11  1  0  0  0  0
  4 17  1  0  0  0  0
  4 24  2  0  0  0  0
  4 25  2  0  0  0  0
  5 26  1  0  0  0  0
  5 29  1  0  0  0  0
  6 29  1  0  0  0  0
  6 35  1  0  0  0  0
  7 33  1  0  0  0  0
  7 34  1  0  0  0  0
  8 27  1  0  0  0  0
  9 28  1  0  0  0  0
 10 30  1  0  0  0  0
 11 31  1  0  0  0  0
 12 32  1  0  0  0  0
 12 48  1  0  0  0  0
 13 34  1  0  0  0  0
 13 49  1  0  0  0  0
 14 50  1  0  0  0  0
 15 51  1  0  0  0  0
 16 52  1  0  0  0  0
 17 53  1  0  0  0  0
 26 27  1  1  0  0  0
 26 33  1  0  0  0  0
 26 36  1  0  0  0  0
 27 31  1  6  0  0  0
 27 37  1  0  0  0  0
 28 29  1  1  0  0  0
 28 38  1  0  0  0  0
 29 39  1  1  0  0  0
 30 28  1  1  0  0  0
 30 40  1  0  0  0  0
 31 34  1  6  0  0  0
 31 41  1  0  0  0  0
 32 30  1  6  0  0  0
 32 35  1  0  0  0  0
 32 42  1  0  0  0  0
 33 43  1  0  0  0  0
 33 44  1  0  0  0  0
 34 45  1  6  0  0  0
 35 46  1  0  0  0  0
 35 47  1  0  0  0  0
M  END
