DB00182
 OpenBabel07062211533D

 23 23  0  0  1  0  0  0  0  0999 V2000
   -3.1884   -0.4914    0.2384 N   0  0  0  0  0  0  0  0  0  0  0  0
   -1.8306   -0.2139   -0.2400 C   0  0  2  0  0  0  0  0  0  0  0  0
   -0.8184   -0.5120    0.8823 C   0  0  0  0  0  0  0  0  0  0  0  0
    0.6131   -0.2969    0.4775 C   0  0  0  0  0  0  0  0  0  0  0  0
   -1.7759    1.2389   -0.7126 C   0  0  0  0  0  0  0  0  0  0  0  0
    1.3354   -1.3474   -0.0739 C   0  0  0  0  0  0  0  0  0  0  0  0
    1.1975    0.9501    0.6603 C   0  0  0  0  0  0  0  0  0  0  0  0
    2.6641   -1.1479   -0.4491 C   0  0  0  0  0  0  0  0  0  0  0  0
    2.5261    1.1497    0.2851 C   0  0  0  0  0  0  0  0  0  0  0  0
    3.2594    0.1007   -0.2695 C   0  0  0  0  0  0  0  0  0  0  0  0
   -1.6282   -0.8670   -1.0978 H   0  0  0  0  0  0  0  0  0  0  0  0
   -0.9381   -1.5501    1.2225 H   0  0  0  0  0  0  0  0  0  0  0  0
   -1.0396    0.1049    1.7646 H   0  0  0  0  0  0  0  0  0  0  0  0
   -0.8332    1.4591   -1.2228 H   0  0  0  0  0  0  0  0  0  0  0  0
   -1.8915    1.9399    0.1216 H   0  0  0  0  0  0  0  0  0  0  0  0
   -2.5746    1.4454   -1.4350 H   0  0  0  0  0  0  0  0  0  0  0  0
    0.8808   -2.3234   -0.2203 H   0  0  0  0  0  0  0  0  0  0  0  0
    0.6391    1.7741    1.0955 H   0  0  0  0  0  0  0  0  0  0  0  0
   -3.2611   -1.4707    0.5113 H   0  0  0  0  0  0  0  0  0  0  0  0
   -3.8548   -0.3554   -0.5209 H   0  0  0  0  0  0  0  0  0  0  0  0
    3.2349   -1.9644   -0.8815 H   0  0  0  0  0  0  0  0  0  0  0  0
    2.9900    2.1216    0.4257 H   0  0  0  0  0  0  0  0  0  0  0  0
    4.2938    0.2561   -0.5614 H   0  0  0  0  0  0  0  0  0  0  0  0
  1  2  1  0  0  0  0
  1 19  1  0  0  0  0
  1 20  1  0  0  0  0
  2  3  1  0  0  0  0
  2  5  1  0  0  0  0
  2 11  1  6  0  0  0
  3  4  1  0  0  0  0
  3 12  1  0  0  0  0
  3 13  1  0  0  0  0
  4  6  2  0  0  0  0
  4  7  1  0  0  0  0
  5 14  1  0  0  0  0
  5 15  1  0  0  0  0
  5 16  1  0  0  0  0
  6  8  1  0  0  0  0
  6 17  1  0  0  0  0
  7  9  2  0  0  0  0
  7 18  1  0  0  0  0
  8 10  2  0  0  0  0
  8 21  1  0  0  0  0
  9 10  1  0  0  0  0
  9 22  1  0  0  0  0
 10 23  1  0  0  0  0
M  END
