DB00671
 OpenBabel07062211533D

 45 47  0  0  1  0  0  0  0  0999 V2000
    1.1488   -1.9076   -1.4716 S   0  0  0  0  0  0  0  0  0  0  0  0
   -5.9101   -2.5304    0.3003 S   0  0  0  0  0  0  0  0  0  0  0  0
    1.2785    0.3254    2.6049 O   0  0  0  0  0  0  0  0  0  0  0  0
    4.3971    0.0943    2.1728 O   0  0  0  0  0  0  0  0  0  0  0  0
    4.2763    1.7124    0.5612 O   0  0  0  0  0  0  0  0  0  0  0  0
   -1.8957   -0.0831    2.5303 O   0  0  0  0  0  0  0  0  0  0  0  0
   -1.7643    2.0102    0.2463 O   0  0  0  0  0  0  0  0  0  0  0  0
   -0.5127    5.2265   -0.7073 O   0  0  0  0  0  0  0  0  0  0  0  0
    0.3945    3.6215    0.6301 O   0  0  0  0  0  0  0  0  0  0  0  0
    2.1400   -0.8665    0.7602 N   0  0  0  0  0  0  0  0  0  0  0  0
   -0.9210   -1.0141    0.6083 N   0  0  0  0  0  0  0  0  0  0  0  0
   -2.9607    1.3490   -0.0642 N   0  0  0  0  0  0  0  0  0  0  0  0
   -5.2467   -0.1718   -0.5236 N   0  0  0  0  0  0  0  0  0  0  0  0
   -7.3595   -0.9370   -1.2591 N   0  0  0  0  0  0  0  0  0  0  0  0
    1.4295   -2.0490    0.3072 C   0  0  1  0  0  0  0  0  0  0  0  0
    0.2745   -1.5889    1.2227 C   0  0  1  0  0  0  0  0  0  0  0  0
    1.2794   -0.5224    1.7433 C   0  0  0  0  0  0  0  0  0  0  0  0
    3.3070   -0.4305    0.2160 C   0  0  0  0  0  0  0  0  0  0  0  0
    2.9333   -1.8527   -1.8582 C   0  0  0  0  0  0  0  0  0  0  0  0
    3.7380   -0.8940   -0.9824 C   0  0  0  0  0  0  0  0  0  0  0  0
    4.0415    0.5963    0.9749 C   0  0  0  0  0  0  0  0  0  0  0  0
   -1.8762   -0.3227    1.3338 C   0  0  0  0  0  0  0  0  0  0  0  0
    5.0002   -0.5296   -1.5986 C   0  0  0  0  0  0  0  0  0  0  0  0
   -3.0176    0.1724    0.4836 C   0  0  0  0  0  0  0  0  0  0  0  0
    6.1289   -0.3974   -0.9125 C   0  0  0  0  0  0  0  0  0  0  0  0
   -4.2129   -0.6470    0.2596 C   0  0  0  0  0  0  0  0  0  0  0  0
   -4.3905   -1.9064    0.7929 C   0  0  0  0  0  0  0  0  0  0  0  0
   -6.1950   -1.0807   -0.5724 C   0  0  0  0  0  0  0  0  0  0  0  0
   -1.7848    3.2795   -0.3882 C   0  0  0  0  0  0  0  0  0  0  0  0
   -0.5154    4.0236   -0.0794 C   0  0  0  0  0  0  0  0  0  0  0  0
    1.9061   -2.9825    0.6294 H   0  0  0  0  0  0  0  0  0  0  0  0
    0.0102   -2.3315    1.9850 H   0  0  0  0  0  0  0  0  0  0  0  0
   -1.0723   -1.1205   -0.3921 H   0  0  0  0  0  0  0  0  0  0  0  0
    3.0018   -1.5615   -2.9122 H   0  0  0  0  0  0  0  0  0  0  0  0
    3.3436   -2.8648   -1.7649 H   0  0  0  0  0  0  0  0  0  0  0  0
    5.0043   -0.3470   -2.6694 H   0  0  0  0  0  0  0  0  0  0  0  0
    7.0399   -0.1114   -1.4294 H   0  0  0  0  0  0  0  0  0  0  0  0
    6.2199   -0.6000    0.1480 H   0  0  0  0  0  0  0  0  0  0  0  0
    4.8917    0.7457    2.7143 H   0  0  0  0  0  0  0  0  0  0  0  0
   -3.7322   -2.4824    1.4280 H   0  0  0  0  0  0  0  0  0  0  0  0
   -1.8568    3.1425   -1.4726 H   0  0  0  0  0  0  0  0  0  0  0  0
   -2.6332    3.8618   -0.0128 H   0  0  0  0  0  0  0  0  0  0  0  0
   -8.0663   -1.6648   -1.2710 H   0  0  0  0  0  0  0  0  0  0  0  0
   -7.5676   -0.0965   -1.7882 H   0  0  0  0  0  0  0  0  0  0  0  0
    0.3064    5.7337   -0.5230 H   0  0  0  0  0  0  0  0  0  0  0  0
  1 15  1  0  0  0  0
  1 19  1  0  0  0  0
  2 27  1  0  0  0  0
  2 28  1  0  0  0  0
  3 17  2  0  0  0  0
  4 21  1  0  0  0  0
  4 39  1  0  0  0  0
  5 21  2  0  0  0  0
  6 22  2  0  0  0  0
  7 12  1  0  0  0  0
  7 29  1  0  0  0  0
  8 30  1  0  0  0  0
  8 45  1  0  0  0  0
  9 30  2  0  0  0  0
 10 15  1  0  0  0  0
 10 17  1  0  0  0  0
 10 18  1  0  0  0  0
 11 16  1  0  0  0  0
 11 22  1  0  0  0  0
 11 33  1  0  0  0  0
 12 24  2  0  0  0  0
 13 26  1  0  0  0  0
 13 28  2  0  0  0  0
 14 28  1  0  0  0  0
 14 43  1  0  0  0  0
 14 44  1  0  0  0  0
 15 16  1  1  0  0  0
 15 31  1  0  0  0  0
 16 17  1  0  0  0  0
 16 32  1  1  0  0  0
 18 20  2  0  0  0  0
 18 21  1  0  0  0  0
 19 20  1  0  0  0  0
 19 34  1  0  0  0  0
 19 35  1  0  0  0  0
 20 23  1  0  0  0  0
 22 24  1  0  0  0  0
 23 25  2  0  0  0  0
 23 36  1  0  0  0  0
 24 26  1  0  0  0  0
 25 37  1  0  0  0  0
 25 38  1  0  0  0  0
 26 27  2  0  0  0  0
 27 40  1  0  0  0  0
 29 30  1  0  0  0  0
 29 41  1  0  0  0  0
 29 42  1  0  0  0  0
M  END
