DB00788
 OpenBabel07062211533D

 31 32  0  0  1  0  0  0  0  0999 V2000
   -4.6027   -0.6069   -0.0986 O   0  0  0  0  0  0  0  0  0  0  0  0
    5.0512    0.8432   -1.1096 O   0  0  0  0  0  0  0  0  0  0  0  0
    2.9795    0.9978   -2.0156 O   0  0  0  0  0  0  0  0  0  0  0  0
    3.2453   -0.2395    0.0736 C   0  0  2  0  0  0  0  0  0  0  0  0
    1.7854   -0.5399    0.0254 C   0  0  0  0  0  0  0  0  0  0  0  0
   -0.5210    0.2341    0.0352 C   0  0  0  0  0  0  0  0  0  0  0  0
   -0.9640   -1.1062   -0.0659 C   0  0  0  0  0  0  0  0  0  0  0  0
    0.8573    0.5004    0.0798 C   0  0  0  0  0  0  0  0  0  0  0  0
    1.3498   -1.8579   -0.0742 C   0  0  0  0  0  0  0  0  0  0  0  0
   -0.0158   -2.1407   -0.1196 C   0  0  0  0  0  0  0  0  0  0  0  0
    3.6930    0.4553    1.3757 C   0  0  0  0  0  0  0  0  0  0  0  0
   -1.4691    1.2687    0.0888 C   0  0  0  0  0  0  0  0  0  0  0  0
   -2.3421   -1.3725   -0.1106 C   0  0  0  0  0  0  0  0  0  0  0  0
   -3.2702   -0.3322   -0.0563 C   0  0  0  0  0  0  0  0  0  0  0  0
    3.7148    0.5946   -1.1237 C   0  0  0  0  0  0  0  0  0  0  0  0
   -2.8346    0.9858    0.0433 C   0  0  0  0  0  0  0  0  0  0  0  0
   -5.4967    0.5033   -0.0367 C   0  0  0  0  0  0  0  0  0  0  0  0
    3.8000   -1.1853   -0.0000 H   0  0  0  0  0  0  0  0  0  0  0  0
    1.2002    1.5307    0.1587 H   0  0  0  0  0  0  0  0  0  0  0  0
    2.0591   -2.6801   -0.1176 H   0  0  0  0  0  0  0  0  0  0  0  0
   -0.3337   -3.1784   -0.1976 H   0  0  0  0  0  0  0  0  0  0  0  0
    4.7850    0.5200    1.4341 H   0  0  0  0  0  0  0  0  0  0  0  0
    3.3011    1.4762    1.4438 H   0  0  0  0  0  0  0  0  0  0  0  0
    3.3442   -0.1012    2.2526 H   0  0  0  0  0  0  0  0  0  0  0  0
   -1.1502    2.3062    0.1668 H   0  0  0  0  0  0  0  0  0  0  0  0
   -2.6994   -2.3979   -0.1881 H   0  0  0  0  0  0  0  0  0  0  0  0
   -3.5004    1.8407    0.0900 H   0  0  0  0  0  0  0  0  0  0  0  0
    5.3318    1.3745   -1.8851 H   0  0  0  0  0  0  0  0  0  0  0  0
   -6.5144    0.1016   -0.0822 H   0  0  0  0  0  0  0  0  0  0  0  0
   -5.3761    1.1660   -0.9004 H   0  0  0  0  0  0  0  0  0  0  0  0
   -5.4072    1.0398    0.9141 H   0  0  0  0  0  0  0  0  0  0  0  0
  1 14  1  0  0  0  0
  1 17  1  0  0  0  0
  2 15  1  0  0  0  0
  2 28  1  0  0  0  0
  3 15  2  0  0  0  0
  4  5  1  0  0  0  0
  4 11  1  0  0  0  0
  4 15  1  0  0  0  0
  4 18  1  6  0  0  0
  5  8  2  0  0  0  0
  5  9  1  0  0  0  0
  6  7  2  0  0  0  0
  6  8  1  0  0  0  0
  6 12  1  0  0  0  0
  7 10  1  0  0  0  0
  7 13  1  0  0  0  0
  8 19  1  0  0  0  0
  9 10  2  0  0  0  0
  9 20  1  0  0  0  0
 10 21  1  0  0  0  0
 11 22  1  0  0  0  0
 11 23  1  0  0  0  0
 11 24  1  0  0  0  0
 12 16  2  0  0  0  0
 12 25  1  0  0  0  0
 13 14  2  0  0  0  0
 13 26  1  0  0  0  0
 14 16  1  0  0  0  0
 16 27  1  0  0  0  0
 17 29  1  0  0  0  0
 17 30  1  0  0  0  0
 17 31  1  0  0  0  0
M  END
