DB00593
 OpenBabel07062211533D

 21 21  0  0  1  0  0  0  0  0999 V2000
   -1.1232   -2.0765   -1.2848 O   0  0  0  0  0  0  0  0  0  0  0  0
   -3.0214    1.7695    0.3716 O   0  0  0  0  0  0  0  0  0  0  0  0
   -2.3660   -0.2660   -0.5361 N   0  0  0  0  0  0  0  0  0  0  0  0
   -0.0893   -0.2730   -0.0061 C   0  0  2  0  0  0  0  0  0  0  0  0
   -0.6969    1.0997    0.3326 C   0  0  0  0  0  0  0  0  0  0  0  0
    1.1185   -0.1461   -0.9321 C   0  0  0  0  0  0  0  0  0  0  0  0
   -1.2211   -1.0041   -0.7054 C   0  0  0  0  0  0  0  0  0  0  0  0
    0.2818   -1.0405    1.2662 C   0  0  0  0  0  0  0  0  0  0  0  0
   -2.1711    0.9389    0.0875 C   0  0  0  0  0  0  0  0  0  0  0  0
    2.2701    0.5526   -0.2390 C   0  0  0  0  0  0  0  0  0  0  0  0
   -0.3396    1.8948   -0.3311 H   0  0  0  0  0  0  0  0  0  0  0  0
   -0.5258    1.3969    1.3717 H   0  0  0  0  0  0  0  0  0  0  0  0
    0.8445    0.4097   -1.8379 H   0  0  0  0  0  0  0  0  0  0  0  0
    1.4513   -1.1346   -1.2729 H   0  0  0  0  0  0  0  0  0  0  0  0
    0.7778   -1.9884    1.0270 H   0  0  0  0  0  0  0  0  0  0  0  0
    0.9405   -0.4643    1.9239 H   0  0  0  0  0  0  0  0  0  0  0  0
   -0.6132   -1.2906    1.8491 H   0  0  0  0  0  0  0  0  0  0  0  0
   -3.2746   -0.5770   -0.8615 H   0  0  0  0  0  0  0  0  0  0  0  0
    1.9839    1.5225    0.1780 H   0  0  0  0  0  0  0  0  0  0  0  0
    2.7003   -0.0581    0.5605 H   0  0  0  0  0  0  0  0  0  0  0  0
    3.0738    0.7346   -0.9611 H   0  0  0  0  0  0  0  0  0  0  0  0
  1  7  2  0  0  0  0
  2  9  2  0  0  0  0
  3  7  1  0  0  0  0
  3  9  1  0  0  0  0
  3 18  1  0  0  0  0
  4  5  1  0  0  0  0
  4  6  1  6  0  0  0
  4  7  1  0  0  0  0
  4  8  1  0  0  0  0
  5  9  1  0  0  0  0
  5 11  1  0  0  0  0
  5 12  1  0  0  0  0
  6 10  1  0  0  0  0
  6 13  1  0  0  0  0
  6 14  1  0  0  0  0
  8 15  1  0  0  0  0
  8 16  1  0  0  0  0
  8 17  1  0  0  0  0
 10 19  1  0  0  0  0
 10 20  1  0  0  0  0
 10 21  1  0  0  0  0
M  END
