DB00434
 OpenBabel07062211533D

 43 46  0  0  0  0  0  0  0  0999 V2000
    3.5580    0.1425    0.0507 N   0  0  0  0  0  0  0  0  0  0  0  0
    0.7684    0.0533   -0.6866 C   0  0  0  0  0  0  0  0  0  0  0  0
    1.6366   -1.1681   -0.8198 C   0  0  0  0  0  0  0  0  0  0  0  0
    1.5278    1.3517   -0.7129 C   0  0  0  0  0  0  0  0  0  0  0  0
    2.7972   -1.1119    0.1797 C   0  0  0  0  0  0  0  0  0  0  0  0
    2.6926    1.3112    0.2828 C   0  0  0  0  0  0  0  0  0  0  0  0
   -0.5604   -0.0105   -0.5258 C   0  0  0  0  0  0  0  0  0  0  0  0
   -1.3209    1.2537   -0.4047 C   0  0  0  0  0  0  0  0  0  0  0  0
   -1.1955   -1.3414   -0.3951 C   0  0  0  0  0  0  0  0  0  0  0  0
    4.6889    0.1518    0.9783 C   0  0  0  0  0  0  0  0  0  0  0  0
   -2.1457    1.5034    0.7089 C   0  0  0  0  0  0  0  0  0  0  0  0
   -1.9929   -1.6609    0.7205 C   0  0  0  0  0  0  0  0  0  0  0  0
   -1.2445    2.2090   -1.4357 C   0  0  0  0  0  0  0  0  0  0  0  0
   -1.0269   -2.2922   -1.4192 C   0  0  0  0  0  0  0  0  0  0  0  0
   -2.2747    0.5872    1.8553 C   0  0  0  0  0  0  0  0  0  0  0  0
   -2.2099   -0.7533    1.8605 C   0  0  0  0  0  0  0  0  0  0  0  0
   -2.8417    2.7234    0.7792 C   0  0  0  0  0  0  0  0  0  0  0  0
   -2.5685   -2.9416    0.7999 C   0  0  0  0  0  0  0  0  0  0  0  0
   -1.9538    3.4064   -1.3551 C   0  0  0  0  0  0  0  0  0  0  0  0
   -1.6183   -3.5515   -1.3299 C   0  0  0  0  0  0  0  0  0  0  0  0
   -2.7496    3.6651   -0.2461 C   0  0  0  0  0  0  0  0  0  0  0  0
   -2.3862   -3.8774   -0.2186 C   0  0  0  0  0  0  0  0  0  0  0  0
    1.1658   -2.1289   -0.6219 H   0  0  0  0  0  0  0  0  0  0  0  0
    2.0331   -1.2092   -1.8427 H   0  0  0  0  0  0  0  0  0  0  0  0
    1.9161    1.5140   -1.7269 H   0  0  0  0  0  0  0  0  0  0  0  0
    0.9612    2.2425   -0.4413 H   0  0  0  0  0  0  0  0  0  0  0  0
    2.4132   -1.2298    1.2024 H   0  0  0  0  0  0  0  0  0  0  0  0
    3.4598   -1.9637   -0.0187 H   0  0  0  0  0  0  0  0  0  0  0  0
    3.2780    2.2309    0.1600 H   0  0  0  0  0  0  0  0  0  0  0  0
    2.3030    1.3083    1.3101 H   0  0  0  0  0  0  0  0  0  0  0  0
    5.2837    1.0631    0.8506 H   0  0  0  0  0  0  0  0  0  0  0  0
    5.3594   -0.6907    0.7759 H   0  0  0  0  0  0  0  0  0  0  0  0
    4.3674    0.0933    2.0245 H   0  0  0  0  0  0  0  0  0  0  0  0
   -0.6518    2.0228   -2.3294 H   0  0  0  0  0  0  0  0  0  0  0  0
   -0.4656   -2.0547   -2.3210 H   0  0  0  0  0  0  0  0  0  0  0  0
   -2.4750    1.0741    2.8091 H   0  0  0  0  0  0  0  0  0  0  0  0
   -2.3627   -1.2501    2.8178 H   0  0  0  0  0  0  0  0  0  0  0  0
   -3.4721    2.9525    1.6365 H   0  0  0  0  0  0  0  0  0  0  0  0
   -3.1744   -3.2240    1.6590 H   0  0  0  0  0  0  0  0  0  0  0  0
   -1.8873    4.1327   -2.1596 H   0  0  0  0  0  0  0  0  0  0  0  0
   -1.4845   -4.2729   -2.1304 H   0  0  0  0  0  0  0  0  0  0  0  0
   -3.3011    4.5982   -0.1773 H   0  0  0  0  0  0  0  0  0  0  0  0
   -2.8462   -4.8584   -0.1433 H   0  0  0  0  0  0  0  0  0  0  0  0
  1  5  1  0  0  0  0
  1  6  1  0  0  0  0
  1 10  1  0  0  0  0
  2  3  1  0  0  0  0
  2  4  1  0  0  0  0
  2  7  2  0  0  0  0
  3  5  1  0  0  0  0
  3 23  1  0  0  0  0
  3 24  1  0  0  0  0
  4  6  1  0  0  0  0
  4 25  1  0  0  0  0
  4 26  1  0  0  0  0
  5 27  1  0  0  0  0
  5 28  1  0  0  0  0
  6 29  1  0  0  0  0
  6 30  1  0  0  0  0
  7  8  1  0  0  0  0
  7  9  1  0  0  0  0
  8 11  2  0  0  0  0
  8 13  1  0  0  0  0
  9 12  2  0  0  0  0
  9 14  1  0  0  0  0
 10 31  1  0  0  0  0
 10 32  1  0  0  0  0
 10 33  1  0  0  0  0
 11 15  1  0  0  0  0
 11 17  1  0  0  0  0
 12 16  1  0  0  0  0
 12 18  1  0  0  0  0
 13 19  2  0  0  0  0
 13 34  1  0  0  0  0
 14 20  2  0  0  0  0
 14 35  1  0  0  0  0
 15 16  2  0  0  0  0
 15 36  1  0  0  0  0
 16 37  1  0  0  0  0
 17 21  2  0  0  0  0
 17 38  1  0  0  0  0
 18 22  2  0  0  0  0
 18 39  1  0  0  0  0
 19 21  1  0  0  0  0
 19 40  1  0  0  0  0
 20 22  1  0  0  0  0
 20 41  1  0  0  0  0
 21 42  1  0  0  0  0
 22 43  1  0  0  0  0
M  END
