DB00571
 OpenBabel07062211533D

 40 41  0  0  1  0  0  0  0  0999 V2000
   -0.3172    1.6462    0.8894 O   0  0  0  0  0  0  0  0  0  0  0  0
    2.0172    2.4266    2.2464 O   0  0  0  0  0  0  0  0  0  0  0  0
    2.5014    0.0298   -0.5334 N   0  0  0  0  0  0  0  0  0  0  0  0
    2.0551    2.0185    0.8760 C   0  0  1  0  0  0  0  0  0  0  0  0
    2.3804    0.5237    0.8316 C   0  0  0  0  0  0  0  0  0  0  0  0
    2.8663   -1.3804   -0.5468 C   0  0  0  0  0  0  0  0  0  0  0  0
    0.7178    2.3651    0.2251 C   0  0  0  0  0  0  0  0  0  0  0  0
    2.9780   -1.8843   -1.9829 C   0  0  0  0  0  0  0  0  0  0  0  0
    1.8298   -2.1807    0.2356 C   0  0  0  0  0  0  0  0  0  0  0  0
   -1.4170    1.3199    0.1480 C   0  0  0  0  0  0  0  0  0  0  0  0
   -2.1676    0.1652    0.4233 C   0  0  0  0  0  0  0  0  0  0  0  0
   -3.2989   -0.1310   -0.3738 C   0  0  0  0  0  0  0  0  0  0  0  0
   -1.7763    2.1701   -0.8982 C   0  0  0  0  0  0  0  0  0  0  0  0
   -1.8206   -0.7019    1.4721 C   0  0  0  0  0  0  0  0  0  0  0  0
   -3.6464    0.7362   -1.4225 C   0  0  0  0  0  0  0  0  0  0  0  0
   -2.8890    1.8790   -1.6818 C   0  0  0  0  0  0  0  0  0  0  0  0
   -4.0497   -1.2854   -0.0987 C   0  0  0  0  0  0  0  0  0  0  0  0
   -2.5777   -1.8447    1.7311 C   0  0  0  0  0  0  0  0  0  0  0  0
   -3.6902   -2.1360    0.9471 C   0  0  0  0  0  0  0  0  0  0  0  0
    2.8578    2.5864    0.3905 H   0  0  0  0  0  0  0  0  0  0  0  0
    1.5978    0.0094    1.3985 H   0  0  0  0  0  0  0  0  0  0  0  0
    3.3159    0.3579    1.3824 H   0  0  0  0  0  0  0  0  0  0  0  0
    3.8476   -1.5152   -0.0740 H   0  0  0  0  0  0  0  0  0  0  0  0
    3.2012    0.5734   -1.0377 H   0  0  0  0  0  0  0  0  0  0  0  0
    0.7798    2.1204   -0.8426 H   0  0  0  0  0  0  0  0  0  0  0  0
    0.5208    3.4371    0.3441 H   0  0  0  0  0  0  0  0  0  0  0  0
    3.2760   -2.9381   -2.0029 H   0  0  0  0  0  0  0  0  0  0  0  0
    2.0237   -1.7940   -2.5142 H   0  0  0  0  0  0  0  0  0  0  0  0
    3.7309   -1.3166   -2.5410 H   0  0  0  0  0  0  0  0  0  0  0  0
    1.9245   -2.0505    1.3184 H   0  0  0  0  0  0  0  0  0  0  0  0
    1.9638   -3.2534    0.0515 H   0  0  0  0  0  0  0  0  0  0  0  0
    0.8060   -1.9306   -0.0653 H   0  0  0  0  0  0  0  0  0  0  0  0
    1.8460    3.3837    2.2624 H   0  0  0  0  0  0  0  0  0  0  0  0
   -1.2429    3.0897   -1.1192 H   0  0  0  0  0  0  0  0  0  0  0  0
   -0.9569   -0.5039    2.1033 H   0  0  0  0  0  0  0  0  0  0  0  0
   -4.5130    0.5294   -2.0468 H   0  0  0  0  0  0  0  0  0  0  0  0
   -3.1738    2.5453   -2.4910 H   0  0  0  0  0  0  0  0  0  0  0  0
   -4.9232   -1.5329   -0.6984 H   0  0  0  0  0  0  0  0  0  0  0  0
   -2.2982   -2.5076    2.5449 H   0  0  0  0  0  0  0  0  0  0  0  0
   -4.2791   -3.0258    1.1493 H   0  0  0  0  0  0  0  0  0  0  0  0
  1  7  1  0  0  0  0
  1 10  1  0  0  0  0
  2  4  1  0  0  0  0
  2 33  1  0  0  0  0
  3  5  1  0  0  0  0
  3  6  1  0  0  0  0
  3 24  1  0  0  0  0
  4  5  1  0  0  0  0
  4  7  1  0  0  0  0
  4 20  1  6  0  0  0
  5 21  1  0  0  0  0
  5 22  1  0  0  0  0
  6  8  1  0  0  0  0
  6  9  1  0  0  0  0
  6 23  1  0  0  0  0
  7 25  1  0  0  0  0
  7 26  1  0  0  0  0
  8 27  1  0  0  0  0
  8 28  1  0  0  0  0
  8 29  1  0  0  0  0
  9 30  1  0  0  0  0
  9 31  1  0  0  0  0
  9 32  1  0  0  0  0
 10 11  2  0  0  0  0
 10 13  1  0  0  0  0
 11 12  1  0  0  0  0
 11 14  1  0  0  0  0
 12 15  2  0  0  0  0
 12 17  1  0  0  0  0
 13 16  2  0  0  0  0
 13 34  1  0  0  0  0
 14 18  2  0  0  0  0
 14 35  1  0  0  0  0
 15 16  1  0  0  0  0
 15 36  1  0  0  0  0
 16 37  1  0  0  0  0
 17 19  2  0  0  0  0
 17 38  1  0  0  0  0
 18 19  1  0  0  0  0
 18 39  1  0  0  0  0
 19 40  1  0  0  0  0
M  END
