DB00917
 OpenBabel07062211533D

 57 57  0  0  1  0  0  0  0  0999 V2000
    4.5941    2.5552    0.2402 O   0  0  0  0  0  0  0  0  0  0  0  0
    4.4735   -1.9293   -1.1544 O   0  0  0  0  0  0  0  0  0  0  0  0
   -0.0819    4.5645    0.9489 O   0  0  0  0  0  0  0  0  0  0  0  0
   -2.3284   -1.3466    2.8329 O   0  0  0  0  0  0  0  0  0  0  0  0
   -0.1164   -1.0438    2.4283 O   0  0  0  0  0  0  0  0  0  0  0  0
    2.7747    1.0489   -0.2950 C   0  0  2  0  0  0  0  0  0  0  0  0
    2.6553   -0.4725   -0.4724 C   0  0  2  0  0  0  0  0  0  0  0  0
    4.1199    1.2304    0.4209 C   0  0  1  0  0  0  0  0  0  0  0  0
    5.0531    0.2306   -0.2584 C   0  0  0  0  0  0  0  0  0  0  0  0
    4.1044   -0.8573   -0.6909 C   0  0  0  0  0  0  0  0  0  0  0  0
    1.7647   -0.8755   -1.6346 C   0  0  0  0  0  0  0  0  0  0  0  0
    1.6270    1.6312    0.4660 C   0  0  0  0  0  0  0  0  0  0  0  0
    0.8203    2.5879   -0.0161 C   0  0  0  0  0  0  0  0  0  0  0  0
    1.6551   -2.3473   -1.9321 C   0  0  0  0  0  0  0  0  0  0  0  0
   -0.3316    3.1713    0.7532 C   0  0  2  0  0  0  0  0  0  0  0  0
   -1.6700    3.0433    0.0130 C   0  0  0  0  0  0  0  0  0  0  0  0
   -2.2612    1.6318    0.0738 C   0  0  0  0  0  0  0  0  0  0  0  0
    0.7955   -3.2207   -1.3858 C   0  0  0  0  0  0  0  0  0  0  0  0
   -3.5568    1.4808   -0.7301 C   0  0  0  0  0  0  0  0  0  0  0  0
   -0.2276   -2.8453   -0.3538 C   0  0  0  0  0  0  0  0  0  0  0  0
   -4.1875    0.0926   -0.6145 C   0  0  0  0  0  0  0  0  0  0  0  0
   -0.0629   -3.5913    0.9775 C   0  0  0  0  0  0  0  0  0  0  0  0
   -1.1164   -3.2278    2.0285 C   0  0  0  0  0  0  0  0  0  0  0  0
   -5.4628   -0.0070   -1.4382 C   0  0  0  0  0  0  0  0  0  0  0  0
   -1.1023   -1.7679    2.4263 C   0  0  0  0  0  0  0  0  0  0  0  0
    2.8409    1.5347   -1.2802 H   0  0  0  0  0  0  0  0  0  0  0  0
    2.3285   -0.9533    0.4589 H   0  0  0  0  0  0  0  0  0  0  0  0
    4.0390    1.0229    1.4952 H   0  0  0  0  0  0  0  0  0  0  0  0
    5.5502    0.6574   -1.1345 H   0  0  0  0  0  0  0  0  0  0  0  0
    5.7960   -0.1579    0.4426 H   0  0  0  0  0  0  0  0  0  0  0  0
    0.7639   -0.4476   -1.5033 H   0  0  0  0  0  0  0  0  0  0  0  0
    2.1407   -0.4054   -2.5547 H   0  0  0  0  0  0  0  0  0  0  0  0
    1.4489    1.2456    1.4671 H   0  0  0  0  0  0  0  0  0  0  0  0
    0.9973    2.9822   -1.0139 H   0  0  0  0  0  0  0  0  0  0  0  0
    5.4801    2.6035    0.6383 H   0  0  0  0  0  0  0  0  0  0  0  0
    2.3531   -2.7344   -2.6723 H   0  0  0  0  0  0  0  0  0  0  0  0
   -0.4201    2.7205    1.7486 H   0  0  0  0  0  0  0  0  0  0  0  0
   -1.5521    3.3571   -1.0327 H   0  0  0  0  0  0  0  0  0  0  0  0
   -2.3909    3.7474    0.4495 H   0  0  0  0  0  0  0  0  0  0  0  0
   -2.4540    1.3701    1.1214 H   0  0  0  0  0  0  0  0  0  0  0  0
   -1.5294    0.9071   -0.3030 H   0  0  0  0  0  0  0  0  0  0  0  0
    0.8292   -4.2594   -1.7037 H   0  0  0  0  0  0  0  0  0  0  0  0
   -3.3493    1.6993   -1.7850 H   0  0  0  0  0  0  0  0  0  0  0  0
   -4.2789    2.2326   -0.3877 H   0  0  0  0  0  0  0  0  0  0  0  0
   -0.2369   -1.7692   -0.1635 H   0  0  0  0  0  0  0  0  0  0  0  0
   -1.2162   -3.0822   -0.7678 H   0  0  0  0  0  0  0  0  0  0  0  0
    0.7433    4.6479    1.4573 H   0  0  0  0  0  0  0  0  0  0  0  0
   -3.4753   -0.6677   -0.9556 H   0  0  0  0  0  0  0  0  0  0  0  0
   -4.4161   -0.1248    0.4352 H   0  0  0  0  0  0  0  0  0  0  0  0
   -0.1090   -4.6726    0.7970 H   0  0  0  0  0  0  0  0  0  0  0  0
    0.9357   -3.3824    1.3828 H   0  0  0  0  0  0  0  0  0  0  0  0
   -2.1082   -3.4720    1.6302 H   0  0  0  0  0  0  0  0  0  0  0  0
   -0.9589   -3.8212    2.9355 H   0  0  0  0  0  0  0  0  0  0  0  0
   -6.2063    0.7215   -1.0999 H   0  0  0  0  0  0  0  0  0  0  0  0
   -5.2601    0.1749   -2.4985 H   0  0  0  0  0  0  0  0  0  0  0  0
   -5.8981   -1.0065   -1.3421 H   0  0  0  0  0  0  0  0  0  0  0  0
   -2.3187   -0.4044    3.1061 H   0  0  0  0  0  0  0  0  0  0  0  0
  1  8  1  0  0  0  0
  1 35  1  0  0  0  0
  2 10  2  0  0  0  0
  3 15  1  0  0  0  0
  3 47  1  0  0  0  0
  4 25  1  0  0  0  0
  4 57  1  0  0  0  0
  5 25  2  0  0  0  0
  6  7  1  6  0  0  0
  6 12  1  0  0  0  0
  6 26  1  0  0  0  0
  7 10  1  0  0  0  0
  7 11  1  0  0  0  0
  7 27  1  1  0  0  0
  8  6  1  6  0  0  0
  8  9  1  0  0  0  0
  8 28  1  0  0  0  0
  9 10  1  0  0  0  0
  9 29  1  0  0  0  0
  9 30  1  0  0  0  0
 11 14  1  0  0  0  0
 11 31  1  0  0  0  0
 11 32  1  0  0  0  0
 12 13  2  0  0  0  0
 12 33  1  0  0  0  0
 13 15  1  0  0  0  0
 13 34  1  0  0  0  0
 14 18  2  0  0  0  0
 14 36  1  0  0  0  0
 15 16  1  0  0  0  0
 15 37  1  1  0  0  0
 16 17  1  0  0  0  0
 16 38  1  0  0  0  0
 16 39  1  0  0  0  0
 17 19  1  0  0  0  0
 17 40  1  0  0  0  0
 17 41  1  0  0  0  0
 18 20  1  0  0  0  0
 18 42  1  0  0  0  0
 19 21  1  0  0  0  0
 19 43  1  0  0  0  0
 19 44  1  0  0  0  0
 20 22  1  0  0  0  0
 20 45  1  0  0  0  0
 20 46  1  0  0  0  0
 21 24  1  0  0  0  0
 21 48  1  0  0  0  0
 21 49  1  0  0  0  0
 22 23  1  0  0  0  0
 22 50  1  0  0  0  0
 22 51  1  0  0  0  0
 23 25  1  0  0  0  0
 23 52  1  0  0  0  0
 23 53  1  0  0  0  0
 24 54  1  0  0  0  0
 24 55  1  0  0  0  0
 24 56  1  0  0  0  0
M  END
