DB00494
 OpenBabel07062211533D

 37 37  0  0  0  0  0  0  0  0999 V2000
   -2.3226    2.3937    0.5872 O   0  0  0  0  0  0  0  0  0  0  0  0
    4.8609    2.3892    0.4002 O   0  0  0  0  0  0  0  0  0  0  0  0
    5.8040   -0.1116   -0.2875 O   0  0  0  0  0  0  0  0  0  0  0  0
    3.2134   -3.2360   -0.5803 O   0  0  0  0  0  0  0  0  0  0  0  0
    5.2658   -2.4703   -0.7217 O   0  0  0  0  0  0  0  0  0  0  0  0
   -2.8843    0.1814    0.1133 N   0  0  0  0  0  0  0  0  0  0  0  0
    4.0435   -2.2999   -0.5013 N   0  0  0  0  0  0  0  0  0  0  0  0
    0.0465    1.4318   -2.6728 N   0  0  0  0  0  0  0  0  0  0  0  0
   -4.2801    0.3596    0.4902 C   0  0  0  0  0  0  0  0  0  0  0  0
   -2.5288   -1.1585   -0.3519 C   0  0  0  0  0  0  0  0  0  0  0  0
   -2.0093    1.2650    0.2045 C   0  0  0  0  0  0  0  0  0  0  0  0
   -5.1233    0.7906   -0.6920 C   0  0  0  0  0  0  0  0  0  0  0  0
   -2.0702   -2.0395    0.7916 C   0  0  0  0  0  0  0  0  0  0  0  0
    1.7702    0.4605    0.4407 C   0  0  0  0  0  0  0  0  0  0  0  0
   -0.5937    1.0297   -0.2007 C   0  0  0  0  0  0  0  0  0  0  0  0
    0.3381    0.6688    0.7000 C   0  0  0  0  0  0  0  0  0  0  0  0
    2.2242   -0.8040    0.0960 C   0  0  0  0  0  0  0  0  0  0  0  0
    2.6442    1.5326    0.5448 C   0  0  0  0  0  0  0  0  0  0  0  0
    3.5831   -1.0008   -0.1503 C   0  0  0  0  0  0  0  0  0  0  0  0
    4.0031    1.3357    0.2984 C   0  0  0  0  0  0  0  0  0  0  0  0
    4.4725    0.0690   -0.0490 C   0  0  0  0  0  0  0  0  0  0  0  0
   -0.2386    1.2511   -1.5625 C   0  0  0  0  0  0  0  0  0  0  0  0
   -4.3450    1.1270    1.2699 H   0  0  0  0  0  0  0  0  0  0  0  0
   -4.6644   -0.5708    0.9223 H   0  0  0  0  0  0  0  0  0  0  0  0
   -1.7327   -1.0960   -1.0987 H   0  0  0  0  0  0  0  0  0  0  0  0
   -3.3933   -1.6070   -0.8542 H   0  0  0  0  0  0  0  0  0  0  0  0
   -4.7605    1.7340   -1.1135 H   0  0  0  0  0  0  0  0  0  0  0  0
   -5.1031    0.0414   -1.4900 H   0  0  0  0  0  0  0  0  0  0  0  0
   -6.1644    0.9326   -0.3857 H   0  0  0  0  0  0  0  0  0  0  0  0
   -1.1985   -1.6276    1.3058 H   0  0  0  0  0  0  0  0  0  0  0  0
   -2.8627   -2.1617    1.5374 H   0  0  0  0  0  0  0  0  0  0  0  0
   -1.8029   -3.0335    0.4193 H   0  0  0  0  0  0  0  0  0  0  0  0
    0.0505    0.5281    1.7402 H   0  0  0  0  0  0  0  0  0  0  0  0
    1.5094   -1.6209    0.0247 H   0  0  0  0  0  0  0  0  0  0  0  0
    2.2847    2.5225    0.8156 H   0  0  0  0  0  0  0  0  0  0  0  0
    5.7601    2.0623    0.5653 H   0  0  0  0  0  0  0  0  0  0  0  0
    6.2046    0.7314   -0.5551 H   0  0  0  0  0  0  0  0  0  0  0  0
  1 11  2  0  0  0  0
  2 20  1  0  0  0  0
  2 36  1  0  0  0  0
  3 21  1  0  0  0  0
  3 37  1  0  0  0  0
  4  7  1  0  0  0  0
  5  7  2  0  0  0  0
  6  9  1  0  0  0  0
  6 10  1  0  0  0  0
  6 11  1  0  0  0  0
  7 19  1  0  0  0  0
  8 22  3  0  0  0  0
  9 12  1  0  0  0  0
  9 23  1  0  0  0  0
  9 24  1  0  0  0  0
 10 13  1  0  0  0  0
 10 25  1  0  0  0  0
 10 26  1  0  0  0  0
 11 15  1  0  0  0  0
 12 27  1  0  0  0  0
 12 28  1  0  0  0  0
 12 29  1  0  0  0  0
 13 30  1  0  0  0  0
 13 31  1  0  0  0  0
 13 32  1  0  0  0  0
 14 16  1  0  0  0  0
 14 17  2  0  0  0  0
 14 18  1  0  0  0  0
 15 16  2  0  0  0  0
 15 22  1  0  0  0  0
 16 33  1  0  0  0  0
 17 19  1  0  0  0  0
 17 34  1  0  0  0  0
 18 20  2  0  0  0  0
 18 35  1  0  0  0  0
 19 21  2  0  0  0  0
 20 21  1  0  0  0  0
M  END
