DB00942
 OpenBabel07062211533D

 50 52  0  0  1  0  0  0  0  0999 V2000
    1.9714    0.1526   -2.0436 O   0  0  0  0  0  0  0  0  0  0  0  0
   -2.3194   -0.6106    0.1035 N   0  0  0  0  0  0  0  0  0  0  0  0
    2.1235   -0.8830    0.0654 C   0  0  0  0  0  0  0  0  0  0  0  0
    1.3746    0.1697   -0.7326 C   0  0  2  0  0  0  0  0  0  0  0  0
    1.9898   -2.2869   -0.5162 C   0  0  0  0  0  0  0  0  0  0  0  0
    3.6345   -0.6743    0.0675 C   0  0  0  0  0  0  0  0  0  0  0  0
    3.1382   -3.0636    0.1207 C   0  0  0  0  0  0  0  0  0  0  0  0
    4.1917   -2.0241    0.5074 C   0  0  0  0  0  0  0  0  0  0  0  0
   -0.1162   -0.2246   -0.9043 C   0  0  0  0  0  0  0  0  0  0  0  0
   -0.9359   -0.2314    0.3890 C   0  0  0  0  0  0  0  0  0  0  0  0
    1.5225    1.5975   -0.2121 C   0  0  0  0  0  0  0  0  0  0  0  0
   -2.9388    0.3565   -0.8134 C   0  0  0  0  0  0  0  0  0  0  0  0
   -3.0880   -0.7276    1.3508 C   0  0  0  0  0  0  0  0  0  0  0  0
   -4.3710   -0.0522   -1.1616 C   0  0  0  0  0  0  0  0  0  0  0  0
   -4.5251   -1.1715    1.0735 C   0  0  0  0  0  0  0  0  0  0  0  0
   -5.2171   -0.2306    0.0939 C   0  0  0  0  0  0  0  0  0  0  0  0
    1.7178    1.7933    1.1375 C   0  0  0  0  0  0  0  0  0  0  0  0
    1.4550    2.6400   -1.1100 C   0  0  0  0  0  0  0  0  0  0  0  0
    1.8526    3.0977    1.6131 C   0  0  0  0  0  0  0  0  0  0  0  0
    1.5897    3.9443   -0.6343 C   0  0  0  0  0  0  0  0  0  0  0  0
    1.7885    4.1731    0.7272 C   0  0  0  0  0  0  0  0  0  0  0  0
    1.7732   -0.9361    1.1036 H   0  0  0  0  0  0  0  0  0  0  0  0
    2.1160   -2.3106   -1.6039 H   0  0  0  0  0  0  0  0  0  0  0  0
    1.0293   -2.7557   -0.2800 H   0  0  0  0  0  0  0  0  0  0  0  0
    3.9618    0.1209    0.7435 H   0  0  0  0  0  0  0  0  0  0  0  0
    4.0264   -0.4410   -0.9293 H   0  0  0  0  0  0  0  0  0  0  0  0
    3.5412   -3.8141   -0.5670 H   0  0  0  0  0  0  0  0  0  0  0  0
    2.7926   -3.5922    1.0166 H   0  0  0  0  0  0  0  0  0  0  0  0
    4.3443   -2.0382    1.5929 H   0  0  0  0  0  0  0  0  0  0  0  0
    5.1588   -2.2301    0.0376 H   0  0  0  0  0  0  0  0  0  0  0  0
   -0.5147    0.5042   -1.6187 H   0  0  0  0  0  0  0  0  0  0  0  0
   -0.2127   -1.1900   -1.4174 H   0  0  0  0  0  0  0  0  0  0  0  0
   -0.9053    0.7488    0.8783 H   0  0  0  0  0  0  0  0  0  0  0  0
   -0.5026   -0.9605    1.0825 H   0  0  0  0  0  0  0  0  0  0  0  0
   -2.4295    0.4021   -1.7786 H   0  0  0  0  0  0  0  0  0  0  0  0
   -2.9347    1.3670   -0.3843 H   0  0  0  0  0  0  0  0  0  0  0  0
   -3.0964    0.2257    1.8955 H   0  0  0  0  0  0  0  0  0  0  0  0
   -2.6222   -1.4734    2.0064 H   0  0  0  0  0  0  0  0  0  0  0  0
    1.5497   -0.5397   -2.5788 H   0  0  0  0  0  0  0  0  0  0  0  0
   -4.3588   -0.9912   -1.7298 H   0  0  0  0  0  0  0  0  0  0  0  0
   -4.8269    0.7064   -1.8080 H   0  0  0  0  0  0  0  0  0  0  0  0
   -5.0891   -1.2073    2.0124 H   0  0  0  0  0  0  0  0  0  0  0  0
   -4.5225   -2.1892    0.6629 H   0  0  0  0  0  0  0  0  0  0  0  0
   -5.3737    0.7445    0.5713 H   0  0  0  0  0  0  0  0  0  0  0  0
   -6.2053   -0.6227   -0.1706 H   0  0  0  0  0  0  0  0  0  0  0  0
    1.7500    0.9909    1.8640 H   0  0  0  0  0  0  0  0  0  0  0  0
    1.2846    2.4889   -2.1712 H   0  0  0  0  0  0  0  0  0  0  0  0
    2.0015    3.2769    2.6741 H   0  0  0  0  0  0  0  0  0  0  0  0
    1.5356    4.7822   -1.3234 H   0  0  0  0  0  0  0  0  0  0  0  0
    1.8910    5.1888    1.0978 H   0  0  0  0  0  0  0  0  0  0  0  0
  1 39  1  0  0  0  0
  2 10  1  0  0  0  0
  2 12  1  0  0  0  0
  2 13  1  0  0  0  0
  3  4  1  0  0  0  0
  3  5  1  0  0  0  0
  3  6  1  0  0  0  0
  3 22  1  0  0  0  0
  4  1  1  6  0  0  0
  4  9  1  0  0  0  0
  4 11  1  0  0  0  0
  5  7  1  0  0  0  0
  5 23  1  0  0  0  0
  5 24  1  0  0  0  0
  6  8  1  0  0  0  0
  6 25  1  0  0  0  0
  6 26  1  0  0  0  0
  7  8  1  0  0  0  0
  7 27  1  0  0  0  0
  7 28  1  0  0  0  0
  8 29  1  0  0  0  0
  8 30  1  0  0  0  0
  9 10  1  0  0  0  0
  9 31  1  0  0  0  0
  9 32  1  0  0  0  0
 10 33  1  0  0  0  0
 10 34  1  0  0  0  0
 11 17  2  0  0  0  0
 11 18  1  0  0  0  0
 12 14  1  0  0  0  0
 12 35  1  0  0  0  0
 12 36  1  0  0  0  0
 13 15  1  0  0  0  0
 13 37  1  0  0  0  0
 13 38  1  0  0  0  0
 14 16  1  0  0  0  0
 14 40  1  0  0  0  0
 14 41  1  0  0  0  0
 15 16  1  0  0  0  0
 15 42  1  0  0  0  0
 15 43  1  0  0  0  0
 16 44  1  0  0  0  0
 16 45  1  0  0  0  0
 17 19  1  0  0  0  0
 17 46  1  0  0  0  0
 18 20  2  0  0  0  0
 18 47  1  0  0  0  0
 19 21  2  0  0  0  0
 19 48  1  0  0  0  0
 20 21  1  0  0  0  0
 20 49  1  0  0  0  0
 21 50  1  0  0  0  0
M  END
