DB00211
 OpenBabel07062211533D

 36 36  0  0  1  0  0  0  0  0999 V2000
    0.3849    0.5589    1.9691 O   0  0  0  0  0  0  0  0  0  0  0  0
   -0.9668   -2.5803    0.2931 O   0  0  0  0  0  0  0  0  0  0  0  0
   -3.9936    1.9764   -0.3936 O   0  0  0  0  0  0  0  0  0  0  0  0
    3.2866   -0.9569   -1.0464 O   0  0  0  0  0  0  0  0  0  0  0  0
    2.4737    0.9230    0.0487 N   0  0  0  0  0  0  0  0  0  0  0  0
    5.8549   -0.0577   -0.6779 N   0  0  0  0  0  0  0  0  0  0  0  0
    0.3103   -0.0545    0.6820 C   0  0  1  0  0  0  0  0  0  0  0  0
   -1.1454   -0.1902    0.3001 C   0  0  0  0  0  0  0  0  0  0  0  0
    1.0871    0.7826   -0.3345 C   0  0  0  0  0  0  0  0  0  0  0  0
   -1.7039   -1.4465    0.1269 C   0  0  0  0  0  0  0  0  0  0  0  0
   -1.8972    0.9617    0.1293 C   0  0  0  0  0  0  0  0  0  0  0  0
   -3.2424    0.8541   -0.2241 C   0  0  0  0  0  0  0  0  0  0  0  0
   -3.0490   -1.5540   -0.2263 C   0  0  0  0  0  0  0  0  0  0  0  0
   -3.8183   -0.4038   -0.4019 C   0  0  0  0  0  0  0  0  0  0  0  0
    3.4650    0.0346   -0.3423 C   0  0  0  0  0  0  0  0  0  0  0  0
    4.8168    0.4088    0.2301 C   0  0  0  0  0  0  0  0  0  0  0  0
   -1.6104   -3.8230    0.0982 C   0  0  0  0  0  0  0  0  0  0  0  0
   -3.3671    3.2292   -0.2027 C   0  0  0  0  0  0  0  0  0  0  0  0
    0.7899   -1.0345    0.7802 H   0  0  0  0  0  0  0  0  0  0  0  0
    0.7047    1.8063   -0.4004 H   0  0  0  0  0  0  0  0  0  0  0  0
    1.0328    0.3317   -1.3321 H   0  0  0  0  0  0  0  0  0  0  0  0
   -1.4167    1.9186    0.2965 H   0  0  0  0  0  0  0  0  0  0  0  0
    2.7172    1.7064    0.6479 H   0  0  0  0  0  0  0  0  0  0  0  0
   -3.5602   -2.4980   -0.3804 H   0  0  0  0  0  0  0  0  0  0  0  0
   -4.8659   -0.4927   -0.6769 H   0  0  0  0  0  0  0  0  0  0  0  0
    1.3265    0.6519    2.1936 H   0  0  0  0  0  0  0  0  0  0  0  0
    4.9265   -0.0642    1.2107 H   0  0  0  0  0  0  0  0  0  0  0  0
    4.9028    1.4925    0.3545 H   0  0  0  0  0  0  0  0  0  0  0  0
   -1.9586   -3.9435   -0.9337 H   0  0  0  0  0  0  0  0  0  0  0  0
   -2.4160   -3.9822    0.8234 H   0  0  0  0  0  0  0  0  0  0  0  0
   -0.8677   -4.6083    0.2742 H   0  0  0  0  0  0  0  0  0  0  0  0
   -3.0246    3.3581    0.8297 H   0  0  0  0  0  0  0  0  0  0  0  0
   -4.1188    4.0041   -0.3864 H   0  0  0  0  0  0  0  0  0  0  0  0
   -2.5594    3.3936   -0.9244 H   0  0  0  0  0  0  0  0  0  0  0  0
    5.7264    0.3632   -1.5971 H   0  0  0  0  0  0  0  0  0  0  0  0
    5.7759   -1.0656   -0.8072 H   0  0  0  0  0  0  0  0  0  0  0  0
  1  7  1  0  0  0  0
  1 26  1  0  0  0  0
  2 10  1  0  0  0  0
  2 17  1  0  0  0  0
  3 12  1  0  0  0  0
  3 18  1  0  0  0  0
  4 15  2  0  0  0  0
  5  9  1  0  0  0  0
  5 15  1  0  0  0  0
  5 23  1  0  0  0  0
  6 16  1  0  0  0  0
  6 35  1  0  0  0  0
  6 36  1  0  0  0  0
  7  8  1  0  0  0  0
  7  9  1  0  0  0  0
  7 19  1  1  0  0  0
  8 10  2  0  0  0  0
  8 11  1  0  0  0  0
  9 20  1  0  0  0  0
  9 21  1  0  0  0  0
 10 13  1  0  0  0  0
 11 12  2  0  0  0  0
 11 22  1  0  0  0  0
 12 14  1  0  0  0  0
 13 14  2  0  0  0  0
 13 24  1  0  0  0  0
 14 25  1  0  0  0  0
 15 16  1  0  0  0  0
 16 27  1  0  0  0  0
 16 28  1  0  0  0  0
 17 29  1  0  0  0  0
 17 30  1  0  0  0  0
 17 31  1  0  0  0  0
 18 32  1  0  0  0  0
 18 33  1  0  0  0  0
 18 34  1  0  0  0  0
M  END
