DB00187
 OpenBabel07062211533D

 46 46  0  0  1  0  0  0  0  0999 V2000
   -2.0345    2.1538    0.3375 O   0  0  0  0  0  0  0  0  0  0  0  0
   -4.7992    2.4021    0.1772 O   0  0  0  0  0  0  0  0  0  0  0  0
    5.7380   -1.4925   -0.4360 O   0  0  0  0  0  0  0  0  0  0  0  0
    6.2918    0.6383    0.2532 O   0  0  0  0  0  0  0  0  0  0  0  0
   -3.4271   -0.9504   -0.5894 N   0  0  0  0  0  0  0  0  0  0  0  0
   -4.1149    1.4300   -0.6182 C   0  0  2  0  0  0  0  0  0  0  0  0
   -4.1383    0.0962    0.1320 C   0  0  0  0  0  0  0  0  0  0  0  0
   -3.4161   -2.1924    0.1717 C   0  0  0  0  0  0  0  0  0  0  0  0
   -2.7034    1.9398   -0.9014 C   0  0  0  0  0  0  0  0  0  0  0  0
   -3.1798   -3.3656   -0.7741 C   0  0  0  0  0  0  0  0  0  0  0  0
   -2.3445   -2.1385    1.2569 C   0  0  0  0  0  0  0  0  0  0  0  0
    2.0889    1.6106    0.3518 C   0  0  0  0  0  0  0  0  0  0  0  0
    3.5671    1.4152    0.3574 C   0  0  0  0  0  0  0  0  0  0  0  0
   -0.6770    1.9752    0.3424 C   0  0  0  0  0  0  0  0  0  0  0  0
    1.4457    2.0394   -0.8093 C   0  0  0  0  0  0  0  0  0  0  0  0
    1.3489    1.3640    1.5083 C   0  0  0  0  0  0  0  0  0  0  0  0
    0.0630    2.2218   -0.8141 C   0  0  0  0  0  0  0  0  0  0  0  0
   -0.0338    1.5464    1.5037 C   0  0  0  0  0  0  0  0  0  0  0  0
    3.9666   -0.0112   -0.0413 C   0  0  0  0  0  0  0  0  0  0  0  0
    5.4649   -0.2120   -0.0460 C   0  0  0  0  0  0  0  0  0  0  0  0
    7.1260   -1.8379   -0.4888 C   0  0  0  0  0  0  0  0  0  0  0  0
   -4.6632    1.3365   -1.5624 H   0  0  0  0  0  0  0  0  0  0  0  0
   -5.1863   -0.1920    0.2892 H   0  0  0  0  0  0  0  0  0  0  0  0
   -3.7198    0.2509    1.1332 H   0  0  0  0  0  0  0  0  0  0  0  0
   -4.3924   -2.3630    0.6443 H   0  0  0  0  0  0  0  0  0  0  0  0
   -3.8839   -1.0936   -1.4899 H   0  0  0  0  0  0  0  0  0  0  0  0
   -2.1874    1.2167   -1.5446 H   0  0  0  0  0  0  0  0  0  0  0  0
   -2.7638    2.9042   -1.4197 H   0  0  0  0  0  0  0  0  0  0  0  0
   -3.1758   -4.3124   -0.2230 H   0  0  0  0  0  0  0  0  0  0  0  0
   -3.9689   -3.4287   -1.5319 H   0  0  0  0  0  0  0  0  0  0  0  0
   -2.2184   -3.2764   -1.2928 H   0  0  0  0  0  0  0  0  0  0  0  0
   -2.2831   -3.0982    1.7821 H   0  0  0  0  0  0  0  0  0  0  0  0
   -2.5551   -1.3744    2.0110 H   0  0  0  0  0  0  0  0  0  0  0  0
   -1.3554   -1.9312    0.8322 H   0  0  0  0  0  0  0  0  0  0  0  0
    3.9700    1.6510    1.3514 H   0  0  0  0  0  0  0  0  0  0  0  0
    4.0404    2.1382   -0.3203 H   0  0  0  0  0  0  0  0  0  0  0  0
   -4.2895    2.5276    0.9960 H   0  0  0  0  0  0  0  0  0  0  0  0
    2.0122    2.2394   -1.7151 H   0  0  0  0  0  0  0  0  0  0  0  0
    1.8377    1.0272    2.4187 H   0  0  0  0  0  0  0  0  0  0  0  0
    3.5909   -0.2337   -1.0473 H   0  0  0  0  0  0  0  0  0  0  0  0
    3.5294   -0.7306    0.6613 H   0  0  0  0  0  0  0  0  0  0  0  0
   -0.3936    2.5861   -1.7297 H   0  0  0  0  0  0  0  0  0  0  0  0
   -0.6059    1.3510    2.4065 H   0  0  0  0  0  0  0  0  0  0  0  0
    7.2052   -2.8794   -0.8117 H   0  0  0  0  0  0  0  0  0  0  0  0
    7.5779   -1.7424    0.5031 H   0  0  0  0  0  0  0  0  0  0  0  0
    7.6464   -1.2049   -1.2139 H   0  0  0  0  0  0  0  0  0  0  0  0
  1  9  1  0  0  0  0
  1 14  1  0  0  0  0
  2  6  1  0  0  0  0
  2 37  1  0  0  0  0
  3 20  1  0  0  0  0
  3 21  1  0  0  0  0
  4 20  2  0  0  0  0
  5  7  1  0  0  0  0
  5  8  1  0  0  0  0
  5 26  1  0  0  0  0
  6  7  1  0  0  0  0
  6  9  1  0  0  0  0
  6 22  1  6  0  0  0
  7 23  1  0  0  0  0
  7 24  1  0  0  0  0
  8 10  1  0  0  0  0
  8 11  1  0  0  0  0
  8 25  1  0  0  0  0
  9 27  1  0  0  0  0
  9 28  1  0  0  0  0
 10 29  1  0  0  0  0
 10 30  1  0  0  0  0
 10 31  1  0  0  0  0
 11 32  1  0  0  0  0
 11 33  1  0  0  0  0
 11 34  1  0  0  0  0
 12 13  1  0  0  0  0
 12 15  2  0  0  0  0
 12 16  1  0  0  0  0
 13 19  1  0  0  0  0
 13 35  1  0  0  0  0
 13 36  1  0  0  0  0
 14 17  2  0  0  0  0
 14 18  1  0  0  0  0
 15 17  1  0  0  0  0
 15 38  1  0  0  0  0
 16 18  2  0  0  0  0
 16 39  1  0  0  0  0
 17 42  1  0  0  0  0
 18 43  1  0  0  0  0
 19 20  1  0  0  0  0
 19 40  1  0  0  0  0
 19 41  1  0  0  0  0
 21 44  1  0  0  0  0
 21 45  1  0  0  0  0
 21 46  1  0  0  0  0
M  END
