DB00642
 OpenBabel07062211533D

 52 54  0  0  1  0  0  0  0  0999 V2000
   -1.4669   -0.1075   -1.7230 O   0  0  0  0  0  0  0  0  0  0  0  0
    2.0596    1.2603    2.6263 O   0  0  0  0  0  0  0  0  0  0  0  0
    6.3768    1.7314    0.0673 O   0  0  0  0  0  0  0  0  0  0  0  0
    4.6404    2.4809   -1.1870 O   0  0  0  0  0  0  0  0  0  0  0  0
    4.3164   -3.2481   -1.8123 O   0  0  0  0  0  0  0  0  0  0  0  0
    4.8510   -3.3043    0.3919 O   0  0  0  0  0  0  0  0  0  0  0  0
   -5.2213   -1.4077    0.5517 N   0  0  0  0  0  0  0  0  0  0  0  0
    2.8187    1.3570    0.4369 N   0  0  0  0  0  0  0  0  0  0  0  0
   -3.3906   -2.9694    0.4049 N   0  0  0  0  0  0  0  0  0  0  0  0
   -1.4571   -2.2248   -0.7980 N   0  0  0  0  0  0  0  0  0  0  0  0
   -1.5624   -4.3627    0.1869 N   0  0  0  0  0  0  0  0  0  0  0  0
   -4.1140    1.6100   -1.2705 C   0  0  0  0  0  0  0  0  0  0  0  0
   -4.3028    0.2780   -0.6023 C   0  0  0  0  0  0  0  0  0  0  0  0
   -3.4936    2.6769   -0.3455 C   0  0  0  0  0  0  0  0  0  0  0  0
   -3.3780   -0.7910   -0.5543 C   0  0  0  0  0  0  0  0  0  0  0  0
   -2.1109    2.3578    0.1127 C   0  0  0  0  0  0  0  0  0  0  0  0
   -3.9812   -1.7932    0.1582 C   0  0  0  0  0  0  0  0  0  0  0  0
   -5.4323   -0.1282    0.0880 C   0  0  0  0  0  0  0  0  0  0  0  0
    4.1941    1.0329    0.7196 C   0  0  1  0  0  0  0  0  0  0  0  0
    4.4614   -0.4770    0.7056 C   0  0  0  0  0  0  0  0  0  0  0  0
   -1.9161    1.6368    1.2909 C   0  0  0  0  0  0  0  0  0  0  0  0
   -1.0126    2.7811   -0.6358 C   0  0  0  0  0  0  0  0  0  0  0  0
    0.4754    1.7623    0.9720 C   0  0  0  0  0  0  0  0  0  0  0  0
   -2.0346   -0.9828   -1.0801 C   0  0  0  0  0  0  0  0  0  0  0  0
    4.2236   -1.1855   -0.6341 C   0  0  0  0  0  0  0  0  0  0  0  0
   -0.6230    1.3391    1.7205 C   0  0  0  0  0  0  0  0  0  0  0  0
    0.2806    2.4834   -0.2060 C   0  0  0  0  0  0  0  0  0  0  0  0
    1.8526    1.4448    1.4298 C   0  0  0  0  0  0  0  0  0  0  0  0
   -2.1072   -3.1375   -0.1034 C   0  0  0  0  0  0  0  0  0  0  0  0
    5.0578    1.8157   -0.2477 C   0  0  0  0  0  0  0  0  0  0  0  0
    4.4893   -2.6748   -0.5923 C   0  0  0  0  0  0  0  0  0  0  0  0
   -3.5008    1.4903   -2.1718 H   0  0  0  0  0  0  0  0  0  0  0  0
   -5.0908    1.9744   -1.6139 H   0  0  0  0  0  0  0  0  0  0  0  0
   -3.4889    3.6392   -0.8740 H   0  0  0  0  0  0  0  0  0  0  0  0
   -4.1421    2.8306    0.5276 H   0  0  0  0  0  0  0  0  0  0  0  0
   -6.3664    0.3764    0.2920 H   0  0  0  0  0  0  0  0  0  0  0  0
    4.4205    1.4183    1.7221 H   0  0  0  0  0  0  0  0  0  0  0  0
    3.8336   -0.9558    1.4690 H   0  0  0  0  0  0  0  0  0  0  0  0
    5.4995   -0.6590    1.0132 H   0  0  0  0  0  0  0  0  0  0  0  0
   -5.8783   -1.9563    1.0899 H   0  0  0  0  0  0  0  0  0  0  0  0
   -2.7612    1.3061    1.8889 H   0  0  0  0  0  0  0  0  0  0  0  0
   -1.1516    3.3469   -1.5531 H   0  0  0  0  0  0  0  0  0  0  0  0
    2.5576    1.4418   -0.5399 H   0  0  0  0  0  0  0  0  0  0  0  0
   -3.8366   -3.7128    0.9327 H   0  0  0  0  0  0  0  0  0  0  0  0
    3.1822   -1.0462   -0.9450 H   0  0  0  0  0  0  0  0  0  0  0  0
    4.8797   -0.7538   -1.3979 H   0  0  0  0  0  0  0  0  0  0  0  0
   -0.4921    0.7732    2.6390 H   0  0  0  0  0  0  0  0  0  0  0  0
    1.1076    2.8576   -0.8020 H   0  0  0  0  0  0  0  0  0  0  0  0
   -2.0734   -5.0557    0.7227 H   0  0  0  0  0  0  0  0  0  0  0  0
   -0.6302   -4.6100   -0.1268 H   0  0  0  0  0  0  0  0  0  0  0  0
    6.9339    2.2517   -0.5499 H   0  0  0  0  0  0  0  0  0  0  0  0
    4.5051   -4.2105   -1.7936 H   0  0  0  0  0  0  0  0  0  0  0  0
  1 24  2  0  0  0  0
  2 28  2  0  0  0  0
  3 30  1  0  0  0  0
  3 51  1  0  0  0  0
  4 30  2  0  0  0  0
  5 31  1  0  0  0  0
  5 52  1  0  0  0  0
  6 31  2  0  0  0  0
  7 17  1  0  0  0  0
  7 18  2  0  0  0  0
  7 40  1  0  0  0  0
  8 19  1  0  0  0  0
  8 28  1  0  0  0  0
  8 43  1  0  0  0  0
  9 17  2  0  0  0  0
  9 29  1  0  0  0  0
  9 44  1  0  0  0  0
 10 24  1  0  0  0  0
 10 29  2  0  0  0  0
 11 29  1  0  0  0  0
 11 49  1  0  0  0  0
 11 50  1  0  0  0  0
 12 13  1  0  0  0  0
 12 14  1  0  0  0  0
 12 32  1  0  0  0  0
 12 33  1  0  0  0  0
 13 15  2  0  0  0  0
 13 18  1  0  0  0  0
 14 16  1  0  0  0  0
 14 34  1  0  0  0  0
 14 35  1  0  0  0  0
 15 17  1  0  0  0  0
 15 24  1  0  0  0  0
 16 21  2  0  0  0  0
 16 22  1  0  0  0  0
 18 36  1  0  0  0  0
 19 20  1  0  0  0  0
 19 30  1  0  0  0  0
 19 37  1  1  0  0  0
 20 25  1  0  0  0  0
 20 38  1  0  0  0  0
 20 39  1  0  0  0  0
 21 26  1  0  0  0  0
 21 41  1  0  0  0  0
 22 27  2  0  0  0  0
 22 42  1  0  0  0  0
 23 26  2  0  0  0  0
 23 27  1  0  0  0  0
 23 28  1  0  0  0  0
 25 31  1  0  0  0  0
 25 45  1  0  0  0  0
 25 46  1  0  0  0  0
 26 47  1  0  0  0  0
 27 48  1  0  0  0  0
M  END
