DB00549
 OpenBabel07062211533D

 74 78  0  0  0  0  0  0  0  0999 V2000
    6.6318   -0.5790   -1.3359 S   0  0  0  0  0  0  0  0  0  0  0  0
   -5.4597   -1.8630   -0.3843 O   0  0  0  0  0  0  0  0  0  0  0  0
   -3.6401   -1.1138    0.7812 O   0  0  0  0  0  0  0  0  0  0  0  0
    2.2638    3.6593    1.3995 O   0  0  0  0  0  0  0  0  0  0  0  0
    3.6129   -1.1310   -1.8090 O   0  0  0  0  0  0  0  0  0  0  0  0
    6.5479   -0.4699   -2.7796 O   0  0  0  0  0  0  0  0  0  0  0  0
    7.7999   -0.0931   -0.6269 O   0  0  0  0  0  0  0  0  0  0  0  0
   -1.8057    4.8914   -0.4797 N   0  0  0  0  0  0  0  0  0  0  0  0
   -4.7555    0.2404   -0.7750 N   0  0  0  0  0  0  0  0  0  0  0  0
    5.2226    0.1021   -0.6358 N   0  0  0  0  0  0  0  0  0  0  0  0
   -5.3563   -3.1150    0.2821 C   0  0  0  0  0  0  0  0  0  0  0  0
   -6.2597   -3.1403    1.5059 C   0  0  0  0  0  0  0  0  0  0  0  0
   -5.9427   -4.2070   -0.5995 C   0  0  0  0  0  0  0  0  0  0  0  0
   -7.6560   -3.3768    0.9358 C   0  0  0  0  0  0  0  0  0  0  0  0
   -7.4533   -4.0893   -0.4017 C   0  0  0  0  0  0  0  0  0  0  0  0
   -4.5251   -0.9217   -0.0437 C   0  0  0  0  0  0  0  0  0  0  0  0
   -2.2376    2.7911    0.1364 C   0  0  0  0  0  0  0  0  0  0  0  0
   -1.1065    3.2641    0.8584 C   0  0  0  0  0  0  0  0  0  0  0  0
   -2.6569    3.8312   -0.6958 C   0  0  0  0  0  0  0  0  0  0  0  0
   -4.0475    1.4430   -0.7443 C   0  0  0  0  0  0  0  0  0  0  0  0
   -0.3244    2.5104    1.8593 C   0  0  0  0  0  0  0  0  0  0  0  0
   -2.9472    1.5740    0.1107 C   0  0  0  0  0  0  0  0  0  0  0  0
   -0.8651    4.5581    0.4579 C   0  0  0  0  0  0  0  0  0  0  0  0
   -3.7549    3.7147   -1.5557 C   0  0  0  0  0  0  0  0  0  0  0  0
   -4.4434    2.4982   -1.5639 C   0  0  0  0  0  0  0  0  0  0  0  0
    0.7855    1.7935    1.1181 C   0  0  0  0  0  0  0  0  0  0  0  0
   -1.8801    6.1776   -1.1385 C   0  0  0  0  0  0  0  0  0  0  0  0
    2.0247    2.4043    0.9258 C   0  0  0  0  0  0  0  0  0  0  0  0
    0.5581    0.5079    0.6272 C   0  0  0  0  0  0  0  0  0  0  0  0
    3.0363    1.7292    0.2428 C   0  0  0  0  0  0  0  0  0  0  0  0
    2.8089    0.4437   -0.2483 C   0  0  0  0  0  0  0  0  0  0  0  0
    1.5697   -0.1671   -0.0561 C   0  0  0  0  0  0  0  0  0  0  0  0
    3.8626   -0.2595   -0.9627 C   0  0  0  0  0  0  0  0  0  0  0  0
    6.4407   -2.2807   -0.8994 C   0  0  0  0  0  0  0  0  0  0  0  0
    6.4711   -2.6928    0.4329 C   0  0  0  0  0  0  0  0  0  0  0  0
    3.5581    4.2073    1.1583 C   0  0  0  0  0  0  0  0  0  0  0  0
    6.2552   -3.2184   -1.9154 C   0  0  0  0  0  0  0  0  0  0  0  0
    6.3160   -4.0423    0.7493 C   0  0  0  0  0  0  0  0  0  0  0  0
    6.6672   -1.7144    1.5444 C   0  0  0  0  0  0  0  0  0  0  0  0
    6.1001   -4.5680   -1.5989 C   0  0  0  0  0  0  0  0  0  0  0  0
    6.1307   -4.9800   -0.2666 C   0  0  0  0  0  0  0  0  0  0  0  0
   -4.3158   -3.3551    0.5282 H   0  0  0  0  0  0  0  0  0  0  0  0
   -6.2224   -2.2153    2.0892 H   0  0  0  0  0  0  0  0  0  0  0  0
   -5.9852   -3.9768    2.1592 H   0  0  0  0  0  0  0  0  0  0  0  0
   -5.6072   -5.1919   -0.2537 H   0  0  0  0  0  0  0  0  0  0  0  0
   -5.6718   -4.0965   -1.6541 H   0  0  0  0  0  0  0  0  0  0  0  0
   -8.2738   -3.9644    1.6223 H   0  0  0  0  0  0  0  0  0  0  0  0
   -8.1670   -2.4207    0.7719 H   0  0  0  0  0  0  0  0  0  0  0  0
   -7.9013   -3.4990   -1.2093 H   0  0  0  0  0  0  0  0  0  0  0  0
   -7.9310   -5.0743   -0.4135 H   0  0  0  0  0  0  0  0  0  0  0  0
   -0.9500    1.7871    2.3964 H   0  0  0  0  0  0  0  0  0  0  0  0
    0.0859    3.1741    2.6298 H   0  0  0  0  0  0  0  0  0  0  0  0
   -5.5448    0.2061   -1.4158 H   0  0  0  0  0  0  0  0  0  0  0  0
   -2.6062    0.7979    0.7772 H   0  0  0  0  0  0  0  0  0  0  0  0
   -0.1058    5.2654    0.7642 H   0  0  0  0  0  0  0  0  0  0  0  0
   -4.0681    4.5324   -2.1961 H   0  0  0  0  0  0  0  0  0  0  0  0
   -5.2998    2.3892   -2.2261 H   0  0  0  0  0  0  0  0  0  0  0  0
   -1.0785    6.8246   -0.7734 H   0  0  0  0  0  0  0  0  0  0  0  0
   -2.8504    6.6261   -0.9105 H   0  0  0  0  0  0  0  0  0  0  0  0
   -1.7680    6.0209   -2.2144 H   0  0  0  0  0  0  0  0  0  0  0  0
   -0.3938    0.0088    0.7798 H   0  0  0  0  0  0  0  0  0  0  0  0
    3.9948    2.1905    0.0408 H   0  0  0  0  0  0  0  0  0  0  0  0
    1.3757   -1.1707   -0.4254 H   0  0  0  0  0  0  0  0  0  0  0  0
    5.3898    0.7152    0.1715 H   0  0  0  0  0  0  0  0  0  0  0  0
    4.3441    3.6244    1.6507 H   0  0  0  0  0  0  0  0  0  0  0  0
    3.7451    4.3464    0.0880 H   0  0  0  0  0  0  0  0  0  0  0  0
    3.5737    5.2036    1.6124 H   0  0  0  0  0  0  0  0  0  0  0  0
    6.2259   -2.9293   -2.9616 H   0  0  0  0  0  0  0  0  0  0  0  0
    6.3373   -4.3821    1.7814 H   0  0  0  0  0  0  0  0  0  0  0  0
    7.6570   -1.2528    1.5037 H   0  0  0  0  0  0  0  0  0  0  0  0
    6.6155   -2.2186    2.5176 H   0  0  0  0  0  0  0  0  0  0  0  0
    5.8851   -0.9542    1.5701 H   0  0  0  0  0  0  0  0  0  0  0  0
    5.9552   -5.2984   -2.3896 H   0  0  0  0  0  0  0  0  0  0  0  0
    6.0099   -6.0310   -0.0205 H   0  0  0  0  0  0  0  0  0  0  0  0
  1  6  2  0  0  0  0
  1  7  2  0  0  0  0
  1 10  1  0  0  0  0
  1 34  1  0  0  0  0
  2 11  1  0  0  0  0
  2 16  1  0  0  0  0
  3 16  2  0  0  0  0
  4 28  1  0  0  0  0
  4 36  1  0  0  0  0
  5 33  2  0  0  0  0
  8 19  1  0  0  0  0
  8 23  2  0  0  0  0
  8 27  1  0  0  0  0
  9 16  1  0  0  0  0
  9 20  1  0  0  0  0
  9 53  1  0  0  0  0
 10 33  1  0  0  0  0
 10 64  1  0  0  0  0
 11 12  1  0  0  0  0
 11 13  1  0  0  0  0
 11 42  1  0  0  0  0
 12 14  1  0  0  0  0
 12 43  1  0  0  0  0
 12 44  1  0  0  0  0
 13 15  1  0  0  0  0
 13 45  1  0  0  0  0
 13 46  1  0  0  0  0
 14 15  1  0  0  0  0
 14 47  1  0  0  0  0
 14 48  1  0  0  0  0
 15 49  1  0  0  0  0
 15 50  1  0  0  0  0
 17 18  2  0  0  0  0
 17 19  1  0  0  0  0
 17 22  2  0  0  0  0
 18 21  1  0  0  0  0
 18 23  1  0  0  0  0
 19 24  2  0  0  0  0
 20 22  1  0  0  0  0
 20 25  2  0  0  0  0
 21 26  1  0  0  0  0
 21 51  1  0  0  0  0
 21 52  1  0  0  0  0
 22 54  1  0  0  0  0
 23 55  1  0  0  0  0
 24 25  1  0  0  0  0
 24 56  1  0  0  0  0
 25 57  1  0  0  0  0
 26 28  2  0  0  0  0
 26 29  1  0  0  0  0
 27 58  1  0  0  0  0
 27 59  1  0  0  0  0
 27 60  1  0  0  0  0
 28 30  1  0  0  0  0
 29 32  2  0  0  0  0
 29 61  1  0  0  0  0
 30 31  2  0  0  0  0
 30 62  1  0  0  0  0
 31 32  1  0  0  0  0
 31 33  1  0  0  0  0
 32 63  1  0  0  0  0
 34 35  2  0  0  0  0
 34 37  1  0  0  0  0
 35 38  1  0  0  0  0
 35 39  1  0  0  0  0
 36 65  1  0  0  0  0
 36 66  1  0  0  0  0
 36 67  1  0  0  0  0
 37 40  2  0  0  0  0
 37 68  1  0  0  0  0
 38 41  2  0  0  0  0
 38 69  1  0  0  0  0
 39 70  1  0  0  0  0
 39 71  1  0  0  0  0
 39 72  1  0  0  0  0
 40 41  1  0  0  0  0
 40 73  1  0  0  0  0
 41 74  1  0  0  0  0
M  END
