DB00714
 OpenBabel07062211533D

 37 40  0  0  1  0  0  0  0  0999 V2000
    3.4319    1.7586   -0.5633 O   0  0  0  0  0  0  0  0  0  0  0  0
    5.3608   -0.1137   -0.4728 O   0  0  0  0  0  0  0  0  0  0  0  0
   -2.3956   -1.1863    0.1982 N   0  0  0  0  0  0  0  0  0  0  0  0
   -0.9989   -0.8057   -0.1385 C   0  0  1  0  0  0  0  0  0  0  0  0
   -0.7201    0.6868    0.0689 C   0  0  0  0  0  0  0  0  0  0  0  0
    0.0243   -1.6218    0.6839 C   0  0  0  0  0  0  0  0  0  0  0  0
   -1.7874    1.6051    0.1119 C   0  0  0  0  0  0  0  0  0  0  0  0
   -3.3380   -0.2887   -0.4889 C   0  0  0  0  0  0  0  0  0  0  0  0
   -3.2122    1.1277    0.0641 C   0  0  0  0  0  0  0  0  0  0  0  0
    0.6212    1.1399    0.1526 C   0  0  0  0  0  0  0  0  0  0  0  0
    1.4436   -1.2031    0.3716 C   0  0  0  0  0  0  0  0  0  0  0  0
    1.7269    0.1554    0.1119 C   0  0  0  0  0  0  0  0  0  0  0  0
   -2.6986   -2.5725   -0.1736 C   0  0  0  0  0  0  0  0  0  0  0  0
   -1.5269    2.9698    0.2683 C   0  0  0  0  0  0  0  0  0  0  0  0
    0.8437    2.5202    0.3068 C   0  0  0  0  0  0  0  0  0  0  0  0
    2.4702   -2.1597    0.3840 C   0  0  0  0  0  0  0  0  0  0  0  0
    3.0589    0.5017   -0.1768 C   0  0  0  0  0  0  0  0  0  0  0  0
   -0.2175    3.4245    0.3620 C   0  0  0  0  0  0  0  0  0  0  0  0
    4.0746   -0.4589   -0.1794 C   0  0  0  0  0  0  0  0  0  0  0  0
    3.7817   -1.7872    0.1065 C   0  0  0  0  0  0  0  0  0  0  0  0
   -0.8264   -0.9980   -1.2089 H   0  0  0  0  0  0  0  0  0  0  0  0
   -0.0763   -2.6893    0.4598 H   0  0  0  0  0  0  0  0  0  0  0  0
   -0.1448   -1.4901    1.7609 H   0  0  0  0  0  0  0  0  0  0  0  0
   -4.3725   -0.6178   -0.3290 H   0  0  0  0  0  0  0  0  0  0  0  0
   -3.1620   -0.2939   -1.5733 H   0  0  0  0  0  0  0  0  0  0  0  0
   -3.6196    1.1629    1.0827 H   0  0  0  0  0  0  0  0  0  0  0  0
   -3.8115    1.8031   -0.5580 H   0  0  0  0  0  0  0  0  0  0  0  0
   -2.1283   -3.2833    0.4312 H   0  0  0  0  0  0  0  0  0  0  0  0
   -2.4991   -2.7697   -1.2330 H   0  0  0  0  0  0  0  0  0  0  0  0
   -3.7524   -2.8028    0.0232 H   0  0  0  0  0  0  0  0  0  0  0  0
   -2.3448    3.6834    0.3264 H   0  0  0  0  0  0  0  0  0  0  0  0
    1.8276    2.9446    0.4712 H   0  0  0  0  0  0  0  0  0  0  0  0
    2.2498   -3.2011    0.6048 H   0  0  0  0  0  0  0  0  0  0  0  0
   -0.0202    4.4836    0.5015 H   0  0  0  0  0  0  0  0  0  0  0  0
    4.5673   -2.5376    0.1094 H   0  0  0  0  0  0  0  0  0  0  0  0
    2.7833    2.0709   -1.2177 H   0  0  0  0  0  0  0  0  0  0  0  0
    5.3876    0.8429   -0.6486 H   0  0  0  0  0  0  0  0  0  0  0  0
  1 17  1  0  0  0  0
  1 36  1  0  0  0  0
  2 19  1  0  0  0  0
  2 37  1  0  0  0  0
  3  4  1  0  0  0  0
  3  8  1  0  0  0  0
  3 13  1  0  0  0  0
  4  5  1  0  0  0  0
  4  6  1  0  0  0  0
  4 21  1  6  0  0  0
  5  7  2  0  0  0  0
  5 10  1  0  0  0  0
  6 11  1  0  0  0  0
  6 22  1  0  0  0  0
  6 23  1  0  0  0  0
  7  9  1  0  0  0  0
  7 14  1  0  0  0  0
  8  9  1  0  0  0  0
  8 24  1  0  0  0  0
  8 25  1  0  0  0  0
  9 26  1  0  0  0  0
  9 27  1  0  0  0  0
 10 12  1  0  0  0  0
 10 15  2  0  0  0  0
 11 12  2  0  0  0  0
 11 16  1  0  0  0  0
 12 17  1  0  0  0  0
 13 28  1  0  0  0  0
 13 29  1  0  0  0  0
 13 30  1  0  0  0  0
 14 18  2  0  0  0  0
 14 31  1  0  0  0  0
 15 18  1  0  0  0  0
 15 32  1  0  0  0  0
 16 20  2  0  0  0  0
 16 33  1  0  0  0  0
 17 19  2  0  0  0  0
 18 34  1  0  0  0  0
 19 20  1  0  0  0  0
 20 35  1  0  0  0  0
M  END
