DB00150
 OpenBabel07062211533D

 27 28  0  0  1  0  0  0  0  0999 V2000
    1.0909   -0.9895    1.9068 O   0  0  0  0  0  0  0  0  0  0  0  0
    2.0548   -2.4071    0.4211 O   0  0  0  0  0  0  0  0  0  0  0  0
   -1.4587    2.1947    0.3380 N   0  0  0  0  0  0  0  0  0  0  0  0
    3.7679   -0.3970   -0.3244 N   0  0  0  0  0  0  0  0  0  0  0  0
    0.2145    0.9708   -0.4551 C   0  0  0  0  0  0  0  0  0  0  0  0
    1.5572    0.5622   -0.9156 C   0  0  0  0  0  0  0  0  0  0  0  0
   -0.9513    0.1560   -0.4126 C   0  0  0  0  0  0  0  0  0  0  0  0
    2.4604   -0.0151    0.2043 C   0  0  1  0  0  0  0  0  0  0  0  0
   -1.9867    0.9479    0.0887 C   0  0  0  0  0  0  0  0  0  0  0  0
   -0.1293    2.2183    0.0124 C   0  0  0  0  0  0  0  0  0  0  0  0
   -1.2260   -1.1834   -0.7534 C   0  0  0  0  0  0  0  0  0  0  0  0
   -3.2882    0.4655    0.2670 C   0  0  0  0  0  0  0  0  0  0  0  0
    1.8588   -1.2663    0.8209 C   0  0  0  0  0  0  0  0  0  0  0  0
   -2.5233   -1.6796   -0.5805 C   0  0  0  0  0  0  0  0  0  0  0  0
   -3.5369   -0.8661   -0.0780 C   0  0  0  0  0  0  0  0  0  0  0  0
    1.4531   -0.1789   -1.7200 H   0  0  0  0  0  0  0  0  0  0  0  0
    2.0610    1.4265   -1.3698 H   0  0  0  0  0  0  0  0  0  0  0  0
    2.6114    0.7291    0.9955 H   0  0  0  0  0  0  0  0  0  0  0  0
    0.4514    3.1207    0.1439 H   0  0  0  0  0  0  0  0  0  0  0  0
   -1.9783    2.9786    0.7080 H   0  0  0  0  0  0  0  0  0  0  0  0
   -0.4506   -1.8317   -1.1509 H   0  0  0  0  0  0  0  0  0  0  0  0
   -4.0780    1.0980    0.6581 H   0  0  0  0  0  0  0  0  0  0  0  0
   -2.7412   -2.7114   -0.8428 H   0  0  0  0  0  0  0  0  0  0  0  0
    4.3786   -0.6801    0.4413 H   0  0  0  0  0  0  0  0  0  0  0  0
    4.2115    0.4130   -0.7560 H   0  0  0  0  0  0  0  0  0  0  0  0
   -4.5374   -1.2721    0.0481 H   0  0  0  0  0  0  0  0  0  0  0  0
    0.7143   -1.8030    2.3050 H   0  0  0  0  0  0  0  0  0  0  0  0
  1 13  1  0  0  0  0
  1 27  1  0  0  0  0
  2 13  2  0  0  0  0
  3  9  1  0  0  0  0
  3 10  2  0  0  0  0
  3 20  1  0  0  0  0
  4  8  1  0  0  0  0
  4 24  1  0  0  0  0
  4 25  1  0  0  0  0
  5  6  1  0  0  0  0
  5  7  2  0  0  0  0
  5 10  1  0  0  0  0
  6  8  1  0  0  0  0
  6 16  1  0  0  0  0
  6 17  1  0  0  0  0
  7  9  1  0  0  0  0
  7 11  2  0  0  0  0
  8 13  1  0  0  0  0
  8 18  1  1  0  0  0
  9 12  2  0  0  0  0
 10 19  1  0  0  0  0
 11 14  1  0  0  0  0
 11 21  1  0  0  0  0
 12 15  1  0  0  0  0
 12 22  1  0  0  0  0
 14 15  2  0  0  0  0
 14 23  1  0  0  0  0
 15 26  1  0  0  0  0
M  END
