DB00507
 OpenBabel07062211533D

 30 31  0  0  0  0  0  0  0  0999 V2000
    3.5628   -1.1618    0.7008 S   0  0  0  0  0  0  0  0  0  0  0  0
   -2.5407    1.2100   -0.5745 O   0  0  0  0  0  0  0  0  0  0  0  0
   -0.0436    0.8838   -1.3777 O   0  0  0  0  0  0  0  0  0  0  0  0
   -2.2859    1.5003    1.7341 O   0  0  0  0  0  0  0  0  0  0  0  0
    6.9925    0.5347    0.0982 O   0  0  0  0  0  0  0  0  0  0  0  0
    6.4218   -1.2449    1.2582 O   0  0  0  0  0  0  0  0  0  0  0  0
    1.0993   -0.6939   -0.0617 N   0  0  0  0  0  0  0  0  0  0  0  0
    2.8332    0.7996   -0.8169 N   0  0  0  0  0  0  0  0  0  0  0  0
    6.1116   -0.2710    0.5141 N   0  0  0  0  0  0  0  0  0  0  0  0
   -1.2868   -0.8292   -0.4196 C   0  0  0  0  0  0  0  0  0  0  0  0
   -2.4982   -0.1389   -0.3848 C   0  0  0  0  0  0  0  0  0  0  0  0
   -0.0333   -0.1278   -0.6597 C   0  0  0  0  0  0  0  0  0  0  0  0
   -1.2649   -2.2101   -0.2232 C   0  0  0  0  0  0  0  0  0  0  0  0
   -3.6880   -0.8293   -0.1532 C   0  0  0  0  0  0  0  0  0  0  0  0
   -2.4546   -2.9006    0.0082 C   0  0  0  0  0  0  0  0  0  0  0  0
    2.4173   -0.2362   -0.1561 C   0  0  0  0  0  0  0  0  0  0  0  0
   -3.6661   -2.2102    0.0432 C   0  0  0  0  0  0  0  0  0  0  0  0
    4.7746   -0.0821    0.1465 C   0  0  0  0  0  0  0  0  0  0  0  0
    4.2003    0.8920   -0.6430 C   0  0  0  0  0  0  0  0  0  0  0  0
   -2.4186    1.9582    0.6069 C   0  0  0  0  0  0  0  0  0  0  0  0
   -2.4769    3.4238    0.2933 C   0  0  0  0  0  0  0  0  0  0  0  0
   -0.3509   -2.7943   -0.2784 H   0  0  0  0  0  0  0  0  0  0  0  0
   -4.6358   -0.2986   -0.1258 H   0  0  0  0  0  0  0  0  0  0  0  0
    1.0008   -1.5054    0.5413 H   0  0  0  0  0  0  0  0  0  0  0  0
   -2.4392   -3.9768    0.1527 H   0  0  0  0  0  0  0  0  0  0  0  0
   -4.5926   -2.7480    0.2212 H   0  0  0  0  0  0  0  0  0  0  0  0
    4.7313    1.7031   -1.1246 H   0  0  0  0  0  0  0  0  0  0  0  0
   -1.6544    3.6907   -0.3747 H   0  0  0  0  0  0  0  0  0  0  0  0
   -2.3755    3.9974    1.2190 H   0  0  0  0  0  0  0  0  0  0  0  0
   -3.4394    3.6653   -0.1643 H   0  0  0  0  0  0  0  0  0  0  0  0
  1 16  1  0  0  0  0
  1 18  1  0  0  0  0
  2 11  1  0  0  0  0
  2 20  1  0  0  0  0
  3 12  2  0  0  0  0
  4 20  2  0  0  0  0
  5  9  1  0  0  0  0
  6  9  2  0  0  0  0
  7 12  1  0  0  0  0
  7 16  1  0  0  0  0
  7 24  1  0  0  0  0
  8 16  2  0  0  0  0
  8 19  1  0  0  0  0
  9 18  1  0  0  0  0
 10 11  2  0  0  0  0
 10 12  1  0  0  0  0
 10 13  1  0  0  0  0
 11 14  1  0  0  0  0
 13 15  2  0  0  0  0
 13 22  1  0  0  0  0
 14 17  2  0  0  0  0
 14 23  1  0  0  0  0
 15 17  1  0  0  0  0
 15 25  1  0  0  0  0
 17 26  1  0  0  0  0
 18 19  2  0  0  0  0
 19 27  1  0  0  0  0
 20 21  1  0  0  0  0
 21 28  1  0  0  0  0
 21 29  1  0  0  0  0
 21 30  1  0  0  0  0
M  END
