DB00159
 OpenBabel07062211533D

 52 51  0  0  0  0  0  0  0  0999 V2000
    3.2989   -1.1052    3.2937 O   0  0  0  0  0  0  0  0  0  0  0  0
    4.3393   -1.0804    1.2676 O   0  0  0  0  0  0  0  0  0  0  0  0
    2.6538    1.1104    0.4420 C   0  0  0  0  0  0  0  0  0  0  0  0
    2.0128    2.4843    0.2095 C   0  0  0  0  0  0  0  0  0  0  0  0
    2.9190    0.7705    1.9081 C   0  0  0  0  0  0  0  0  0  0  0  0
    1.8134    2.7968   -1.2446 C   0  0  0  0  0  0  0  0  0  0  0  0
   -0.5420    1.9327   -1.2792 C   0  0  0  0  0  0  0  0  0  0  0  0
    0.6734    2.5500   -1.9064 C   0  0  0  0  0  0  0  0  0  0  0  0
   -1.4537    2.9867   -0.7223 C   0  0  0  0  0  0  0  0  0  0  0  0
   -2.3443    1.5045    1.0894 C   0  0  0  0  0  0  0  0  0  0  0  0
    3.5997   -0.5594    2.0902 C   0  0  0  0  0  0  0  0  0  0  0  0
   -2.2589    2.7987    0.3342 C   0  0  0  0  0  0  0  0  0  0  0  0
   -3.1465   -1.2191    0.1027 C   0  0  0  0  0  0  0  0  0  0  0  0
   -3.7520    0.9867    1.1236 C   0  0  0  0  0  0  0  0  0  0  0  0
   -0.1469   -1.8417    0.9082 C   0  0  0  0  0  0  0  0  0  0  0  0
   -4.1121   -0.2286    0.6837 C   0  0  0  0  0  0  0  0  0  0  0  0
   -2.6639   -2.1888    1.1416 C   0  0  0  0  0  0  0  0  0  0  0  0
   -1.3923   -2.4552    1.4799 C   0  0  0  0  0  0  0  0  0  0  0  0
    0.6864   -2.8628    0.1899 C   0  0  0  0  0  0  0  0  0  0  0  0
    0.3806   -1.7873   -2.0542 C   0  0  0  0  0  0  0  0  0  0  0  0
    0.9209   -2.8374   -1.1305 C   0  0  0  0  0  0  0  0  0  0  0  0
    0.8200   -2.0301   -3.4893 C   0  0  0  0  0  0  0  0  0  0  0  0
    2.0195    0.3282    0.0084 H   0  0  0  0  0  0  0  0  0  0  0  0
    3.6014    1.0658   -0.1115 H   0  0  0  0  0  0  0  0  0  0  0  0
    1.0771    2.5554    0.7744 H   0  0  0  0  0  0  0  0  0  0  0  0
    2.6634    3.2606    0.6323 H   0  0  0  0  0  0  0  0  0  0  0  0
    1.9610    0.7516    2.4409 H   0  0  0  0  0  0  0  0  0  0  0  0
    3.5521    1.5361    2.3692 H   0  0  0  0  0  0  0  0  0  0  0  0
    2.6490    3.2365   -1.7822 H   0  0  0  0  0  0  0  0  0  0  0  0
   -1.0778    1.3807   -2.0611 H   0  0  0  0  0  0  0  0  0  0  0  0
   -0.2268    1.1937   -0.5435 H   0  0  0  0  0  0  0  0  0  0  0  0
    0.6134    2.8154   -2.9590 H   0  0  0  0  0  0  0  0  0  0  0  0
   -1.4925    3.9506   -1.2252 H   0  0  0  0  0  0  0  0  0  0  0  0
   -2.0647    1.7278    2.1282 H   0  0  0  0  0  0  0  0  0  0  0  0
   -1.6242    0.7591    0.7763 H   0  0  0  0  0  0  0  0  0  0  0  0
   -2.8858    3.6236    0.6643 H   0  0  0  0  0  0  0  0  0  0  0  0
   -2.3428   -0.7381   -0.4572 H   0  0  0  0  0  0  0  0  0  0  0  0
   -3.6912   -1.7953   -0.6572 H   0  0  0  0  0  0  0  0  0  0  0  0
   -4.5178    1.6299    1.5506 H   0  0  0  0  0  0  0  0  0  0  0  0
   -0.3674   -0.9824    0.2782 H   0  0  0  0  0  0  0  0  0  0  0  0
    0.4463   -1.4438    1.7407 H   0  0  0  0  0  0  0  0  0  0  0  0
   -5.1535   -0.5289    0.7679 H   0  0  0  0  0  0  0  0  0  0  0  0
   -3.4392   -2.7493    1.6631 H   0  0  0  0  0  0  0  0  0  0  0  0
   -1.2348   -3.1983    2.2608 H   0  0  0  0  0  0  0  0  0  0  0  0
    1.1260   -3.6615    0.7825 H   0  0  0  0  0  0  0  0  0  0  0  0
   -0.7141   -1.7836   -2.0217 H   0  0  0  0  0  0  0  0  0  0  0  0
    0.7448   -0.8008   -1.7515 H   0  0  0  0  0  0  0  0  0  0  0  0
    1.5422   -3.6244   -1.5510 H   0  0  0  0  0  0  0  0  0  0  0  0
    0.4607   -2.9977   -3.8562 H   0  0  0  0  0  0  0  0  0  0  0  0
    1.9117   -2.0146   -3.5786 H   0  0  0  0  0  0  0  0  0  0  0  0
    0.4175   -1.2504   -4.1441 H   0  0  0  0  0  0  0  0  0  0  0  0
    3.7412   -1.9711    3.4241 H   0  0  0  0  0  0  0  0  0  0  0  0
  1 11  1  0  0  0  0
  1 52  1  0  0  0  0
  2 11  2  0  0  0  0
  3  4  1  0  0  0  0
  3  5  1  0  0  0  0
  3 23  1  0  0  0  0
  3 24  1  0  0  0  0
  4  6  1  0  0  0  0
  4 25  1  0  0  0  0
  4 26  1  0  0  0  0
  5 11  1  0  0  0  0
  5 27  1  0  0  0  0
  5 28  1  0  0  0  0
  6  8  2  0  0  0  0
  6 29  1  0  0  0  0
  7  8  1  0  0  0  0
  7  9  1  0  0  0  0
  7 30  1  0  0  0  0
  7 31  1  0  0  0  0
  8 32  1  0  0  0  0
  9 12  2  0  0  0  0
  9 33  1  0  0  0  0
 10 12  1  0  0  0  0
 10 14  1  0  0  0  0
 10 34  1  0  0  0  0
 10 35  1  0  0  0  0
 12 36  1  0  0  0  0
 13 16  1  0  0  0  0
 13 17  1  0  0  0  0
 13 37  1  0  0  0  0
 13 38  1  0  0  0  0
 14 16  2  0  0  0  0
 14 39  1  0  0  0  0
 15 18  1  0  0  0  0
 15 19  1  0  0  0  0
 15 40  1  0  0  0  0
 15 41  1  0  0  0  0
 16 42  1  0  0  0  0
 17 18  2  0  0  0  0
 17 43  1  0  0  0  0
 18 44  1  0  0  0  0
 19 21  2  0  0  0  0
 19 45  1  0  0  0  0
 20 21  1  0  0  0  0
 20 22  1  0  0  0  0
 20 46  1  0  0  0  0
 20 47  1  0  0  0  0
 21 48  1  0  0  0  0
 22 49  1  0  0  0  0
 22 50  1  0  0  0  0
 22 51  1  0  0  0  0
M  END
