DB00752
 OpenBabel07062211533D

 21 22  0  0  1  0  0  0  0  0999 V2000
    3.2730    0.8232    0.1070 N   0  0  0  0  0  0  0  0  0  0  0  0
    1.0244   -0.1248   -0.6739 C   0  0  1  0  0  0  0  0  0  0  0  0
    2.0250    0.1190    0.4125 C   0  0  1  0  0  0  0  0  0  0  0  0
    1.8039   -1.2708   -0.1081 C   0  0  0  0  0  0  0  0  0  0  0  0
   -0.4287   -0.0104   -0.3632 C   0  0  0  0  0  0  0  0  0  0  0  0
   -1.0330    1.2452   -0.3038 C   0  0  0  0  0  0  0  0  0  0  0  0
   -1.1843   -1.1598   -0.1319 C   0  0  0  0  0  0  0  0  0  0  0  0
   -2.3931    1.3516   -0.0128 C   0  0  0  0  0  0  0  0  0  0  0  0
   -2.5444   -1.0535    0.1589 C   0  0  0  0  0  0  0  0  0  0  0  0
   -3.1488    0.2023    0.2186 C   0  0  0  0  0  0  0  0  0  0  0  0
    1.3103    0.1768   -1.6800 H   0  0  0  0  0  0  0  0  0  0  0  0
    1.6482    0.3237    1.4102 H   0  0  0  0  0  0  0  0  0  0  0  0
    1.3643   -1.9745    0.5883 H   0  0  0  0  0  0  0  0  0  0  0  0
    2.5669   -1.7157   -0.7381 H   0  0  0  0  0  0  0  0  0  0  0  0
    3.9887    0.5779    0.7899 H   0  0  0  0  0  0  0  0  0  0  0  0
    3.1355    1.8295    0.1912 H   0  0  0  0  0  0  0  0  0  0  0  0
   -0.4533    2.1470   -0.4827 H   0  0  0  0  0  0  0  0  0  0  0  0
   -0.7486   -2.1526   -0.1931 H   0  0  0  0  0  0  0  0  0  0  0  0
   -2.8638    2.3293    0.0333 H   0  0  0  0  0  0  0  0  0  0  0  0
   -3.1343   -1.9484    0.3339 H   0  0  0  0  0  0  0  0  0  0  0  0
   -4.2081    0.2850    0.4436 H   0  0  0  0  0  0  0  0  0  0  0  0
  1  3  1  0  0  0  0
  1 15  1  0  0  0  0
  1 16  1  0  0  0  0
  2  3  1  1  0  0  0
  2  4  1  0  0  0  0
  2  5  1  0  0  0  0
  2 11  1  0  0  0  0
  3  4  1  0  0  0  0
  3 12  1  1  0  0  0
  4 13  1  0  0  0  0
  4 14  1  0  0  0  0
  5  6  2  0  0  0  0
  5  7  1  0  0  0  0
  6  8  1  0  0  0  0
  6 17  1  0  0  0  0
  7  9  2  0  0  0  0
  7 18  1  0  0  0  0
  8 10  2  0  0  0  0
  8 19  1  0  0  0  0
  9 10  1  0  0  0  0
  9 20  1  0  0  0  0
 10 21  1  0  0  0  0
M  END
