DB00833
 OpenBabel07062211533D

 38 40  0  0  1  0  0  0  0  0999 V2000
   -4.8794    2.8314   -0.2536 Cl  0  0  0  0  0  0  0  0  0  0  0  0
   -0.9865    1.2667    0.8846 S   0  0  0  0  0  0  0  0  0  0  0  0
   -2.8204   -2.6633   -0.8280 O   0  0  0  0  0  0  0  0  0  0  0  0
    1.5228   -2.0567    1.7638 O   0  0  0  0  0  0  0  0  0  0  0  0
   -5.8877   -0.5368   -0.2539 O   0  0  0  0  0  0  0  0  0  0  0  0
   -4.8126   -0.1995   -2.2440 O   0  0  0  0  0  0  0  0  0  0  0  0
   -2.8174   -0.5420    0.2017 N   0  0  0  0  0  0  0  0  0  0  0  0
    0.0948   -1.4779    0.0312 N   0  0  0  0  0  0  0  0  0  0  0  0
    3.5389   -2.5046   -0.0710 N   0  0  0  0  0  0  0  0  0  0  0  0
   -1.8464   -0.2819    1.2511 C   0  0  1  0  0  0  0  0  0  0  0  0
   -1.1490   -1.5813    0.7932 C   0  0  1  0  0  0  0  0  0  0  0  0
   -2.4073   -1.7932   -0.0978 C   0  0  0  0  0  0  0  0  0  0  0  0
   -3.7663    0.3508   -0.1818 C   0  0  0  0  0  0  0  0  0  0  0  0
   -2.5174    2.2653    0.9420 C   0  0  0  0  0  0  0  0  0  0  0  0
   -3.6730    1.6504    0.1749 C   0  0  0  0  0  0  0  0  0  0  0  0
    1.3489   -1.7288    0.5910 C   0  0  0  0  0  0  0  0  0  0  0  0
    2.4918   -1.5329   -0.3991 C   0  0  1  0  0  0  0  0  0  0  0  0
   -4.8576   -0.1510   -1.0318 C   0  0  0  0  0  0  0  0  0  0  0  0
    2.9975   -0.1056   -0.3644 C   0  0  0  0  0  0  0  0  0  0  0  0
    2.4273    0.8324   -1.2064 C   0  0  0  0  0  0  0  0  0  0  0  0
    4.0178    0.2274    0.5087 C   0  0  0  0  0  0  0  0  0  0  0  0
    2.8928    2.1468   -1.1744 C   0  0  0  0  0  0  0  0  0  0  0  0
    4.4831    1.5419    0.5407 C   0  0  0  0  0  0  0  0  0  0  0  0
    3.9205    2.5017   -0.3010 C   0  0  0  0  0  0  0  0  0  0  0  0
   -2.2796   -0.3423    2.2567 H   0  0  0  0  0  0  0  0  0  0  0  0
   -1.0838   -2.3392    1.5838 H   0  0  0  0  0  0  0  0  0  0  0  0
    0.0593   -1.1997   -0.9466 H   0  0  0  0  0  0  0  0  0  0  0  0
   -2.2592    3.2453    0.5267 H   0  0  0  0  0  0  0  0  0  0  0  0
   -2.8060    2.4095    1.9888 H   0  0  0  0  0  0  0  0  0  0  0  0
    2.1415   -1.7711   -1.4115 H   0  0  0  0  0  0  0  0  0  0  0  0
    4.2846   -2.4475   -0.7643 H   0  0  0  0  0  0  0  0  0  0  0  0
    3.1619   -3.4491   -0.1467 H   0  0  0  0  0  0  0  0  0  0  0  0
    1.6267    0.5666   -1.8904 H   0  0  0  0  0  0  0  0  0  0  0  0
    4.4633   -0.4917    1.1892 H   0  0  0  0  0  0  0  0  0  0  0  0
   -6.6405   -0.8796   -0.7811 H   0  0  0  0  0  0  0  0  0  0  0  0
    2.4543    2.8943   -1.8291 H   0  0  0  0  0  0  0  0  0  0  0  0
    5.2804    1.8197    1.2239 H   0  0  0  0  0  0  0  0  0  0  0  0
    4.2820    3.5255   -0.2749 H   0  0  0  0  0  0  0  0  0  0  0  0
  1 15  1  0  0  0  0
  2 10  1  0  0  0  0
  2 14  1  0  0  0  0
  3 12  2  0  0  0  0
  4 16  2  0  0  0  0
  5 18  1  0  0  0  0
  5 35  1  0  0  0  0
  6 18  2  0  0  0  0
  7 10  1  0  0  0  0
  7 12  1  0  0  0  0
  7 13  1  0  0  0  0
  8 11  1  0  0  0  0
  8 16  1  0  0  0  0
  8 27  1  0  0  0  0
  9 17  1  0  0  0  0
  9 31  1  0  0  0  0
  9 32  1  0  0  0  0
 10 11  1  6  0  0  0
 10 25  1  0  0  0  0
 11 12  1  0  0  0  0
 11 26  1  1  0  0  0
 13 15  2  0  0  0  0
 13 18  1  0  0  0  0
 14 15  1  0  0  0  0
 14 28  1  0  0  0  0
 14 29  1  0  0  0  0
 16 17  1  0  0  0  0
 17 19  1  0  0  0  0
 17 30  1  6  0  0  0
 19 20  2  0  0  0  0
 19 21  1  0  0  0  0
 20 22  1  0  0  0  0
 20 33  1  0  0  0  0
 21 23  2  0  0  0  0
 21 34  1  0  0  0  0
 22 24  2  0  0  0  0
 22 36  1  0  0  0  0
 23 24  1  0  0  0  0
 23 37  1  0  0  0  0
 24 38  1  0  0  0  0
M  END
