DB00710
 OpenBabel07062211533D

 42 41  0  0  0  0  0  0  0  0999 V2000
   -3.4060   -0.0475    1.4768 P   0  0  0  0  0  0  0  0  0  0  0  0
   -2.4926    2.1459   -0.6078 P   0  0  0  0  0  0  0  0  0  0  0  0
   -4.1224    0.2418   -0.9702 O   0  0  0  0  0  0  0  0  0  0  0  0
   -4.2580   -1.4094    1.2977 O   0  0  0  0  0  0  0  0  0  0  0  0
   -4.5367    1.0550    1.8279 O   0  0  0  0  0  0  0  0  0  0  0  0
   -3.7505    2.9917   -0.0496 O   0  0  0  0  0  0  0  0  0  0  0  0
   -2.6497    2.2356   -2.2135 O   0  0  0  0  0  0  0  0  0  0  0  0
   -2.2793   -0.1194    2.4634 O   0  0  0  0  0  0  0  0  0  0  0  0
   -1.1529    2.5829   -0.0916 O   0  0  0  0  0  0  0  0  0  0  0  0
    0.3321   -1.6124   -0.8156 N   0  0  0  0  0  0  0  0  0  0  0  0
   -2.9016    0.3988   -0.2315 C   0  0  0  0  0  0  0  0  0  0  0  0
   -1.9032   -0.6189   -0.8239 C   0  0  0  0  0  0  0  0  0  0  0  0
   -0.5234   -0.6180   -0.1732 C   0  0  0  0  0  0  0  0  0  0  0  0
    1.6684   -1.6013   -0.2202 C   0  0  0  0  0  0  0  0  0  0  0  0
    2.3012   -0.2181   -0.3627 C   0  0  0  0  0  0  0  0  0  0  0  0
    3.7094   -0.1899    0.2352 C   0  0  0  0  0  0  0  0  0  0  0  0
   -0.2621   -2.9452   -0.7097 C   0  0  0  0  0  0  0  0  0  0  0  0
    4.3325    1.2017    0.1262 C   0  0  0  0  0  0  0  0  0  0  0  0
    5.7445    1.2256    0.6892 C   0  0  0  0  0  0  0  0  0  0  0  0
   -2.3829   -1.5989   -0.7286 H   0  0  0  0  0  0  0  0  0  0  0  0
   -1.8046   -0.4331   -1.9018 H   0  0  0  0  0  0  0  0  0  0  0  0
   -0.1321    0.3857   -0.3248 H   0  0  0  0  0  0  0  0  0  0  0  0
   -0.5874   -0.8037    0.9015 H   0  0  0  0  0  0  0  0  0  0  0  0
    2.3066   -2.3299   -0.7357 H   0  0  0  0  0  0  0  0  0  0  0  0
    1.6322   -1.8904    0.8386 H   0  0  0  0  0  0  0  0  0  0  0  0
    1.7384    0.5484    0.1777 H   0  0  0  0  0  0  0  0  0  0  0  0
    2.3401    0.0757   -1.4189 H   0  0  0  0  0  0  0  0  0  0  0  0
    3.6702   -0.4918    1.2890 H   0  0  0  0  0  0  0  0  0  0  0  0
    4.3425   -0.9183   -0.2861 H   0  0  0  0  0  0  0  0  0  0  0  0
    0.4595   -3.7111   -1.0207 H   0  0  0  0  0  0  0  0  0  0  0  0
   -0.5769   -3.1866    0.3122 H   0  0  0  0  0  0  0  0  0  0  0  0
   -1.1075   -3.0722   -1.3927 H   0  0  0  0  0  0  0  0  0  0  0  0
   -4.4368   -0.6691   -0.8407 H   0  0  0  0  0  0  0  0  0  0  0  0
    3.7170    1.9298    0.6673 H   0  0  0  0  0  0  0  0  0  0  0  0
    4.3599    1.5163   -0.9236 H   0  0  0  0  0  0  0  0  0  0  0  0
   -4.6095   -1.8580    2.0959 H   0  0  0  0  0  0  0  0  0  0  0  0
   -4.9383    1.0538    2.7228 H   0  0  0  0  0  0  0  0  0  0  0  0
   -3.7285    3.9706   -0.1077 H   0  0  0  0  0  0  0  0  0  0  0  0
   -2.4266    3.0765   -2.6664 H   0  0  0  0  0  0  0  0  0  0  0  0
    6.1705    2.2300    0.6019 H   0  0  0  0  0  0  0  0  0  0  0  0
    5.7495    0.9452    1.7473 H   0  0  0  0  0  0  0  0  0  0  0  0
    6.3951    0.5323    0.1466 H   0  0  0  0  0  0  0  0  0  0  0  0
  1  4  1  0  0  0  0
  1  5  1  0  0  0  0
  1  8  2  0  0  0  0
  1 11  1  0  0  0  0
  2  6  1  0  0  0  0
  2  7  1  0  0  0  0
  2  9  2  0  0  0  0
  2 11  1  0  0  0  0
  3 11  1  0  0  0  0
  3 33  1  0  0  0  0
  4 36  1  0  0  0  0
  5 37  1  0  0  0  0
  6 38  1  0  0  0  0
  7 39  1  0  0  0  0
 10 13  1  0  0  0  0
 10 14  1  0  0  0  0
 10 17  1  0  0  0  0
 11 12  1  0  0  0  0
 12 13  1  0  0  0  0
 12 20  1  0  0  0  0
 12 21  1  0  0  0  0
 13 22  1  0  0  0  0
 13 23  1  0  0  0  0
 14 15  1  0  0  0  0
 14 24  1  0  0  0  0
 14 25  1  0  0  0  0
 15 16  1  0  0  0  0
 15 26  1  0  0  0  0
 15 27  1  0  0  0  0
 16 18  1  0  0  0  0
 16 28  1  0  0  0  0
 16 29  1  0  0  0  0
 17 30  1  0  0  0  0
 17 31  1  0  0  0  0
 17 32  1  0  0  0  0
 18 19  1  0  0  0  0
 18 34  1  0  0  0  0
 18 35  1  0  0  0  0
 19 40  1  0  0  0  0
 19 41  1  0  0  0  0
 19 42  1  0  0  0  0
M  END
