DB00924
 OpenBabel07062211533D

 42 44  0  0  0  0  0  0  0  0999 V2000
    2.8255   -1.3376   -0.5234 N   0  0  0  0  0  0  0  0  0  0  0  0
   -0.6956   -0.0873    0.6810 C   0  0  0  0  0  0  0  0  0  0  0  0
   -1.9365   -0.8521    0.4232 C   0  0  0  0  0  0  0  0  0  0  0  0
   -0.6114    1.3811    0.5120 C   0  0  0  0  0  0  0  0  0  0  0  0
    1.7354   -0.1079    1.2951 C   0  0  0  0  0  0  0  0  0  0  0  0
    0.4211   -0.7632    1.0110 C   0  0  0  0  0  0  0  0  0  0  0  0
    2.8978   -1.0169    0.8977 C   0  0  0  0  0  0  0  0  0  0  0  0
   -2.6314   -0.7228   -0.7946 C   0  0  0  0  0  0  0  0  0  0  0  0
   -1.0158    2.0000   -0.6863 C   0  0  0  0  0  0  0  0  0  0  0  0
   -2.1682    0.1094   -1.9186 C   0  0  0  0  0  0  0  0  0  0  0  0
   -1.4838    1.2628   -1.8728 C   0  0  0  0  0  0  0  0  0  0  0  0
   -2.4491   -1.6980    1.4247 C   0  0  0  0  0  0  0  0  0  0  0  0
   -0.1506    2.1753    1.5790 C   0  0  0  0  0  0  0  0  0  0  0  0
   -3.8019   -1.4771   -0.9927 C   0  0  0  0  0  0  0  0  0  0  0  0
   -0.9098    3.3979   -0.7983 C   0  0  0  0  0  0  0  0  0  0  0  0
   -3.6192   -2.4263    1.2155 C   0  0  0  0  0  0  0  0  0  0  0  0
   -0.0672    3.5611    1.4541 C   0  0  0  0  0  0  0  0  0  0  0  0
   -4.2936   -2.3186    0.0056 C   0  0  0  0  0  0  0  0  0  0  0  0
   -0.4432    4.1723    0.2642 C   0  0  0  0  0  0  0  0  0  0  0  0
    3.9142   -2.2392   -0.9038 C   0  0  0  0  0  0  0  0  0  0  0  0
    2.8716   -0.1169   -1.3300 C   0  0  0  0  0  0  0  0  0  0  0  0
    1.8085    0.0405    2.3806 H   0  0  0  0  0  0  0  0  0  0  0  0
    1.8788    0.8729    0.8375 H   0  0  0  0  0  0  0  0  0  0  0  0
    0.3812   -1.8448    1.1320 H   0  0  0  0  0  0  0  0  0  0  0  0
    3.8462   -0.5252    1.1517 H   0  0  0  0  0  0  0  0  0  0  0  0
    2.8499   -1.9402    1.4903 H   0  0  0  0  0  0  0  0  0  0  0  0
   -2.4485   -0.2580   -2.9051 H   0  0  0  0  0  0  0  0  0  0  0  0
   -1.2615    1.7419   -2.8256 H   0  0  0  0  0  0  0  0  0  0  0  0
   -1.9420   -1.7950    2.3825 H   0  0  0  0  0  0  0  0  0  0  0  0
    0.1169    1.7322    2.5357 H   0  0  0  0  0  0  0  0  0  0  0  0
   -4.3500   -1.4127   -1.9309 H   0  0  0  0  0  0  0  0  0  0  0  0
   -1.1969    3.9028   -1.7191 H   0  0  0  0  0  0  0  0  0  0  0  0
   -4.0015   -3.0766    1.9966 H   0  0  0  0  0  0  0  0  0  0  0  0
    0.2854    4.1618    2.2873 H   0  0  0  0  0  0  0  0  0  0  0  0
   -5.2029   -2.8878   -0.1634 H   0  0  0  0  0  0  0  0  0  0  0  0
   -0.3766    5.2514    0.1613 H   0  0  0  0  0  0  0  0  0  0  0  0
    3.8658   -3.1672   -0.3233 H   0  0  0  0  0  0  0  0  0  0  0  0
    4.8999   -1.7857   -0.7488 H   0  0  0  0  0  0  0  0  0  0  0  0
    3.8271   -2.5259   -1.9577 H   0  0  0  0  0  0  0  0  0  0  0  0
    3.7223    0.5240   -1.0705 H   0  0  0  0  0  0  0  0  0  0  0  0
    1.9486    0.4652   -1.2597 H   0  0  0  0  0  0  0  0  0  0  0  0
    2.9612   -0.3693   -2.3938 H   0  0  0  0  0  0  0  0  0  0  0  0
  1  7  1  0  0  0  0
  1 20  1  0  0  0  0
  1 21  1  0  0  0  0
  2  3  1  0  0  0  0
  2  4  1  0  0  0  0
  2  6  2  0  0  0  0
  3  8  2  0  0  0  0
  3 12  1  0  0  0  0
  4  9  2  0  0  0  0
  4 13  1  0  0  0  0
  5  6  1  0  0  0  0
  5  7  1  0  0  0  0
  5 22  1  0  0  0  0
  5 23  1  0  0  0  0
  6 24  1  0  0  0  0
  7 25  1  0  0  0  0
  7 26  1  0  0  0  0
  8 10  1  0  0  0  0
  8 14  1  0  0  0  0
  9 11  1  0  0  0  0
  9 15  1  0  0  0  0
 10 11  2  0  0  0  0
 10 27  1  0  0  0  0
 11 28  1  0  0  0  0
 12 16  2  0  0  0  0
 12 29  1  0  0  0  0
 13 17  2  0  0  0  0
 13 30  1  0  0  0  0
 14 18  2  0  0  0  0
 14 31  1  0  0  0  0
 15 19  2  0  0  0  0
 15 32  1  0  0  0  0
 16 18  1  0  0  0  0
 16 33  1  0  0  0  0
 17 19  1  0  0  0  0
 17 34  1  0  0  0  0
 18 35  1  0  0  0  0
 19 36  1  0  0  0  0
 20 37  1  0  0  0  0
 20 38  1  0  0  0  0
 20 39  1  0  0  0  0
 21 40  1  0  0  0  0
 21 41  1  0  0  0  0
 21 42  1  0  0  0  0
M  END
