DB00484
 OpenBabel07062211533D

 27 29  0  0  0  0  0  0  0  0999 V2000
    1.1131   -3.0269   -0.1575 Br  0  0  0  0  0  0  0  0  0  0  0  0
   -3.3815   -1.0267    0.2653 N   0  0  0  0  0  0  0  0  0  0  0  0
   -1.0806   -0.8896    0.4072 N   0  0  0  0  0  0  0  0  0  0  0  0
   -2.4053    0.9198   -0.3739 N   0  0  0  0  0  0  0  0  0  0  0  0
    3.6750   -1.3729   -0.2701 N   0  0  0  0  0  0  0  0  0  0  0  0
    3.9854    1.3701    0.0451 N   0  0  0  0  0  0  0  0  0  0  0  0
   -4.5312   -0.2648   -0.1161 C   0  0  0  0  0  0  0  0  0  0  0  0
   -3.8831    1.0570   -0.5475 C   0  0  0  0  0  0  0  0  0  0  0  0
   -2.2443   -0.2964    0.0904 C   0  0  0  0  0  0  0  0  0  0  0  0
    0.2186   -0.3440    0.3112 C   0  0  0  0  0  0  0  0  0  0  0  0
    1.3367   -1.1384    0.0634 C   0  0  0  0  0  0  0  0  0  0  0  0
    2.6118   -0.5856   -0.0303 C   0  0  0  0  0  0  0  0  0  0  0  0
    0.3735    1.0253    0.4683 C   0  0  0  0  0  0  0  0  0  0  0  0
    2.7689    0.8034    0.1292 C   0  0  0  0  0  0  0  0  0  0  0  0
    1.6452    1.5883    0.3765 C   0  0  0  0  0  0  0  0  0  0  0  0
    4.8831   -0.7868   -0.3507 C   0  0  0  0  0  0  0  0  0  0  0  0
    5.0361    0.5652   -0.1952 C   0  0  0  0  0  0  0  0  0  0  0  0
   -5.2148   -0.1213    0.7257 H   0  0  0  0  0  0  0  0  0  0  0  0
   -5.0686   -0.7374   -0.9433 H   0  0  0  0  0  0  0  0  0  0  0  0
   -4.1077    1.2799   -1.5960 H   0  0  0  0  0  0  0  0  0  0  0  0
   -4.2455    1.8895    0.0648 H   0  0  0  0  0  0  0  0  0  0  0  0
   -3.4271   -1.9764    0.6133 H   0  0  0  0  0  0  0  0  0  0  0  0
   -1.0931   -1.8889    0.5907 H   0  0  0  0  0  0  0  0  0  0  0  0
   -0.4443    1.6919    0.7180 H   0  0  0  0  0  0  0  0  0  0  0  0
    1.7547    2.6624    0.5138 H   0  0  0  0  0  0  0  0  0  0  0  0
    5.7216   -1.4436   -0.5445 H   0  0  0  0  0  0  0  0  0  0  0  0
    6.0035    1.0470   -0.2581 H   0  0  0  0  0  0  0  0  0  0  0  0
  1 11  1  0  0  0  0
  2  7  1  0  0  0  0
  2  9  1  0  0  0  0
  2 22  1  0  0  0  0
  3  9  1  0  0  0  0
  3 10  1  0  0  0  0
  3 23  1  0  0  0  0
  4  8  1  0  0  0  0
  4  9  2  0  0  0  0
  5 12  2  0  0  0  0
  5 16  1  0  0  0  0
  6 14  2  0  0  0  0
  6 17  1  0  0  0  0
  7  8  1  0  0  0  0
  7 18  1  0  0  0  0
  7 19  1  0  0  0  0
  8 20  1  0  0  0  0
  8 21  1  0  0  0  0
 10 11  2  0  0  0  0
 10 13  1  0  0  0  0
 11 12  1  0  0  0  0
 12 14  1  0  0  0  0
 13 15  2  0  0  0  0
 13 24  1  0  0  0  0
 14 15  1  0  0  0  0
 15 25  1  0  0  0  0
 16 17  2  0  0  0  0
 16 26  1  0  0  0  0
 17 27  1  0  0  0  0
M  END
