DB00573
 OpenBabel07062211533D

 32 33  0  0  1  0  0  0  0  0999 V2000
    1.4438    1.8375   -0.8195 O   0  0  0  0  0  0  0  0  0  0  0  0
   -2.6337   -3.0380    0.8883 O   0  0  0  0  0  0  0  0  0  0  0  0
   -0.9562   -1.6761    1.5718 O   0  0  0  0  0  0  0  0  0  0  0  0
   -2.5914   -0.7991   -0.0166 C   0  0  1  0  0  0  0  0  0  0  0  0
   -1.8583    0.4991    0.0111 C   0  0  0  0  0  0  0  0  0  0  0  0
   -0.5338    0.5614   -0.4218 C   0  0  0  0  0  0  0  0  0  0  0  0
   -2.7338   -1.4074   -1.4267 C   0  0  0  0  0  0  0  0  0  0  0  0
   -2.4972    1.6512    0.4695 C   0  0  0  0  0  0  0  0  0  0  0  0
    0.1517    1.7761   -0.3965 C   0  0  0  0  0  0  0  0  0  0  0  0
   -1.9630   -1.8557    0.8989 C   0  0  0  0  0  0  0  0  0  0  0  0
   -1.8119    2.8658    0.4948 C   0  0  0  0  0  0  0  0  0  0  0  0
   -0.4874    2.9282    0.0617 C   0  0  0  0  0  0  0  0  0  0  0  0
    2.3105    0.8476   -0.3873 C   0  0  0  0  0  0  0  0  0  0  0  0
    2.2976    0.4754    0.9447 C   0  0  0  0  0  0  0  0  0  0  0  0
    3.1668    0.2572   -1.2990 C   0  0  0  0  0  0  0  0  0  0  0  0
    3.1710   -0.5212    1.3800 C   0  0  0  0  0  0  0  0  0  0  0  0
    4.0402   -0.7393   -0.8636 C   0  0  0  0  0  0  0  0  0  0  0  0
    4.0423   -1.1285    0.4760 C   0  0  0  0  0  0  0  0  0  0  0  0
   -3.6046   -0.6394    0.3775 H   0  0  0  0  0  0  0  0  0  0  0  0
   -0.0511   -0.3361   -0.8006 H   0  0  0  0  0  0  0  0  0  0  0  0
   -3.1401   -0.6696   -2.1274 H   0  0  0  0  0  0  0  0  0  0  0  0
   -1.7699   -1.7513   -1.8184 H   0  0  0  0  0  0  0  0  0  0  0  0
   -3.4111   -2.2683   -1.4213 H   0  0  0  0  0  0  0  0  0  0  0  0
   -3.5288    1.6206    0.8103 H   0  0  0  0  0  0  0  0  0  0  0  0
   -2.3092    3.7629    0.8518 H   0  0  0  0  0  0  0  0  0  0  0  0
    0.0414    3.8771    0.0841 H   0  0  0  0  0  0  0  0  0  0  0  0
    1.6455    0.9489    1.6729 H   0  0  0  0  0  0  0  0  0  0  0  0
    3.1658    0.5591   -2.3420 H   0  0  0  0  0  0  0  0  0  0  0  0
    3.1763   -0.8207    2.4240 H   0  0  0  0  0  0  0  0  0  0  0  0
    4.7188   -1.2122   -1.5675 H   0  0  0  0  0  0  0  0  0  0  0  0
   -2.2132   -3.7015    1.4759 H   0  0  0  0  0  0  0  0  0  0  0  0
    4.7232   -1.9038    0.8151 H   0  0  0  0  0  0  0  0  0  0  0  0
  1  9  1  0  0  0  0
  1 13  1  0  0  0  0
  2 10  1  0  0  0  0
  2 31  1  0  0  0  0
  3 10  2  0  0  0  0
  4  5  1  0  0  0  0
  4  7  1  0  0  0  0
  4 10  1  0  0  0  0
  4 19  1  1  0  0  0
  5  6  2  0  0  0  0
  5  8  1  0  0  0  0
  6  9  1  0  0  0  0
  6 20  1  0  0  0  0
  7 21  1  0  0  0  0
  7 22  1  0  0  0  0
  7 23  1  0  0  0  0
  8 11  2  0  0  0  0
  8 24  1  0  0  0  0
  9 12  2  0  0  0  0
 11 12  1  0  0  0  0
 11 25  1  0  0  0  0
 12 26  1  0  0  0  0
 13 14  2  0  0  0  0
 13 15  1  0  0  0  0
 14 16  1  0  0  0  0
 14 27  1  0  0  0  0
 15 17  2  0  0  0  0
 15 28  1  0  0  0  0
 16 18  2  0  0  0  0
 16 29  1  0  0  0  0
 17 18  1  0  0  0  0
 17 30  1  0  0  0  0
 18 32  1  0  0  0  0
M  END
