DB00748
 OpenBabel07062211533D

 39 40  0  0  1  0  0  0  0  0999 V2000
   -6.1685    2.9436   -0.3149 Cl  0  0  0  0  0  0  0  0  0  0  0  0
    0.1148    0.8630    0.0030 O   0  0  0  0  0  0  0  0  0  0  0  0
    3.7723    0.4659   -0.2215 N   0  0  0  0  0  0  0  0  0  0  0  0
   -1.1997   -1.4355   -1.3219 N   0  0  0  0  0  0  0  0  0  0  0  0
   -0.9546    0.0954    0.5385 C   0  0  1  0  0  0  0  0  0  0  0  0
    1.3663    0.2146    0.1884 C   0  0  0  0  0  0  0  0  0  0  0  0
    2.4610    1.0869   -0.4050 C   0  0  0  0  0  0  0  0  0  0  0  0
   -2.2699    0.8147    0.3238 C   0  0  0  0  0  0  0  0  0  0  0  0
   -0.9600   -1.3196   -0.0071 C   0  0  0  0  0  0  0  0  0  0  0  0
   -3.2959    0.6300    1.2330 C   0  0  0  0  0  0  0  0  0  0  0  0
   -2.4156    1.6396   -0.7776 C   0  0  0  0  0  0  0  0  0  0  0  0
   -0.7251   -2.3575    0.8620 C   0  0  0  0  0  0  0  0  0  0  0  0
    4.0361    0.2393    1.1989 C   0  0  0  0  0  0  0  0  0  0  0  0
    4.8197    1.3002   -0.8092 C   0  0  0  0  0  0  0  0  0  0  0  0
   -4.5078    1.2916    1.0347 C   0  0  0  0  0  0  0  0  0  0  0  0
   -3.6273    2.3014   -0.9760 C   0  0  0  0  0  0  0  0  0  0  0  0
   -4.6735    2.1276   -0.0698 C   0  0  0  0  0  0  0  0  0  0  0  0
   -0.7368   -3.6422    0.3302 C   0  0  0  0  0  0  0  0  0  0  0  0
   -1.2033   -2.6990   -1.8027 C   0  0  0  0  0  0  0  0  0  0  0  0
   -0.9797   -3.8248   -1.0267 C   0  0  0  0  0  0  0  0  0  0  0  0
   -0.7919    0.0692    1.6260 H   0  0  0  0  0  0  0  0  0  0  0  0
    1.4984    0.0679    1.2646 H   0  0  0  0  0  0  0  0  0  0  0  0
    1.4006   -0.7545   -0.3202 H   0  0  0  0  0  0  0  0  0  0  0  0
    2.2539    1.2255   -1.4741 H   0  0  0  0  0  0  0  0  0  0  0  0
    2.4185    2.0883    0.0444 H   0  0  0  0  0  0  0  0  0  0  0  0
   -3.1772   -0.0197    2.0952 H   0  0  0  0  0  0  0  0  0  0  0  0
   -1.6200    1.7811   -1.5029 H   0  0  0  0  0  0  0  0  0  0  0  0
   -0.5361   -2.2051    1.9184 H   0  0  0  0  0  0  0  0  0  0  0  0
    3.4454   -0.5915    1.5970 H   0  0  0  0  0  0  0  0  0  0  0  0
    3.8638    1.1346    1.8075 H   0  0  0  0  0  0  0  0  0  0  0  0
    5.0795   -0.0649    1.3487 H   0  0  0  0  0  0  0  0  0  0  0  0
    5.7961    0.8100   -0.7258 H   0  0  0  0  0  0  0  0  0  0  0  0
    4.8846    2.2832   -0.3286 H   0  0  0  0  0  0  0  0  0  0  0  0
    4.6371    1.4508   -1.8791 H   0  0  0  0  0  0  0  0  0  0  0  0
   -5.3144    1.1463    1.7487 H   0  0  0  0  0  0  0  0  0  0  0  0
   -3.7432    2.9474   -1.8426 H   0  0  0  0  0  0  0  0  0  0  0  0
   -0.5567   -4.4995    0.9719 H   0  0  0  0  0  0  0  0  0  0  0  0
   -1.3976   -2.7873   -2.8666 H   0  0  0  0  0  0  0  0  0  0  0  0
   -0.9934   -4.8169   -1.4629 H   0  0  0  0  0  0  0  0  0  0  0  0
  1 17  1  0  0  0  0
  2  5  1  0  0  0  0
  2  6  1  0  0  0  0
  3  7  1  0  0  0  0
  3 13  1  0  0  0  0
  3 14  1  0  0  0  0
  4  9  2  0  0  0  0
  4 19  1  0  0  0  0
  5  8  1  0  0  0  0
  5  9  1  0  0  0  0
  5 21  1  1  0  0  0
  6  7  1  0  0  0  0
  6 22  1  0  0  0  0
  6 23  1  0  0  0  0
  7 24  1  0  0  0  0
  7 25  1  0  0  0  0
  8 10  2  0  0  0  0
  8 11  1  0  0  0  0
  9 12  1  0  0  0  0
 10 15  1  0  0  0  0
 10 26  1  0  0  0  0
 11 16  2  0  0  0  0
 11 27  1  0  0  0  0
 12 18  2  0  0  0  0
 12 28  1  0  0  0  0
 13 29  1  0  0  0  0
 13 30  1  0  0  0  0
 13 31  1  0  0  0  0
 14 32  1  0  0  0  0
 14 33  1  0  0  0  0
 14 34  1  0  0  0  0
 15 17  2  0  0  0  0
 15 35  1  0  0  0  0
 16 17  1  0  0  0  0
 16 36  1  0  0  0  0
 18 20  1  0  0  0  0
 18 37  1  0  0  0  0
 19 20  2  0  0  0  0
 19 38  1  0  0  0  0
 20 39  1  0  0  0  0
M  END
