DB00440
 OpenBabel07062211533D

 39 40  0  0  0  0  0  0  0  0999 V2000
    2.3080   -2.4927    1.1310 O   0  0  0  0  0  0  0  0  0  0  0  0
    2.5633    1.9151   -0.7254 O   0  0  0  0  0  0  0  0  0  0  0  0
    3.7054   -0.5712   -0.2928 O   0  0  0  0  0  0  0  0  0  0  0  0
   -4.0507    0.8297   -1.0091 N   0  0  0  0  0  0  0  0  0  0  0  0
   -4.1353   -1.3741   -0.0381 N   0  0  0  0  0  0  0  0  0  0  0  0
   -2.4881    2.4267   -0.2138 N   0  0  0  0  0  0  0  0  0  0  0  0
   -5.5877   -0.7677   -1.7783 N   0  0  0  0  0  0  0  0  0  0  0  0
   -1.4443    0.5731    1.7155 C   0  0  0  0  0  0  0  0  0  0  0  0
   -0.0837    0.2708    1.1850 C   0  0  0  0  0  0  0  0  0  0  0  0
   -2.5675    0.2340    0.7565 C   0  0  0  0  0  0  0  0  0  0  0  0
    0.6170    1.2410    0.4685 C   0  0  0  0  0  0  0  0  0  0  0  0
    0.4884   -0.9822    1.4052 C   0  0  0  0  0  0  0  0  0  0  0  0
    1.7609   -1.2650    0.9089 C   0  0  0  0  0  0  0  0  0  0  0  0
    1.8896    0.9583   -0.0278 C   0  0  0  0  0  0  0  0  0  0  0  0
    2.4615   -0.2948    0.1923 C   0  0  0  0  0  0  0  0  0  0  0  0
   -3.0506    1.1278   -0.1539 C   0  0  0  0  0  0  0  0  0  0  0  0
   -3.1327   -1.0085    0.7874 C   0  0  0  0  0  0  0  0  0  0  0  0
   -4.5395   -0.4202   -0.8984 C   0  0  0  0  0  0  0  0  0  0  0  0
    2.0523   -3.5020    0.1563 C   0  0  0  0  0  0  0  0  0  0  0  0
    3.3991    2.7953    0.0234 C   0  0  0  0  0  0  0  0  0  0  0  0
    3.8828   -0.4861   -1.7049 C   0  0  0  0  0  0  0  0  0  0  0  0
   -1.6001    0.0082    2.6467 H   0  0  0  0  0  0  0  0  0  0  0  0
   -1.5024    1.6136    2.0565 H   0  0  0  0  0  0  0  0  0  0  0  0
    0.1892    2.2252    0.3012 H   0  0  0  0  0  0  0  0  0  0  0  0
   -0.0513   -1.7432    1.9637 H   0  0  0  0  0  0  0  0  0  0  0  0
   -2.8088   -1.7780    1.4796 H   0  0  0  0  0  0  0  0  0  0  0  0
   -2.1884    2.8713    0.6434 H   0  0  0  0  0  0  0  0  0  0  0  0
   -2.8680    3.0370   -0.9283 H   0  0  0  0  0  0  0  0  0  0  0  0
    2.4443   -3.2043   -0.8211 H   0  0  0  0  0  0  0  0  0  0  0  0
    0.9785   -3.7025    0.0851 H   0  0  0  0  0  0  0  0  0  0  0  0
    2.5589   -4.4184    0.4713 H   0  0  0  0  0  0  0  0  0  0  0  0
    4.1782    2.2340    0.5489 H   0  0  0  0  0  0  0  0  0  0  0  0
    2.8042    3.3723    0.7385 H   0  0  0  0  0  0  0  0  0  0  0  0
    3.8777    3.4886   -0.6736 H   0  0  0  0  0  0  0  0  0  0  0  0
    4.3000    0.4886   -1.9725 H   0  0  0  0  0  0  0  0  0  0  0  0
    2.9505   -0.6655   -2.2517 H   0  0  0  0  0  0  0  0  0  0  0  0
    4.6035   -1.2546   -2.0001 H   0  0  0  0  0  0  0  0  0  0  0  0
   -5.9879   -1.6945   -1.7330 H   0  0  0  0  0  0  0  0  0  0  0  0
   -5.9261   -0.0849   -2.4421 H   0  0  0  0  0  0  0  0  0  0  0  0
  1 13  1  0  0  0  0
  1 19  1  0  0  0  0
  2 14  1  0  0  0  0
  2 20  1  0  0  0  0
  3 15  1  0  0  0  0
  3 21  1  0  0  0  0
  4 16  2  0  0  0  0
  4 18  1  0  0  0  0
  5 17  1  0  0  0  0
  5 18  2  0  0  0  0
  6 16  1  0  0  0  0
  6 27  1  0  0  0  0
  6 28  1  0  0  0  0
  7 18  1  0  0  0  0
  7 38  1  0  0  0  0
  7 39  1  0  0  0  0
  8  9  1  0  0  0  0
  8 10  1  0  0  0  0
  8 22  1  0  0  0  0
  8 23  1  0  0  0  0
  9 11  2  0  0  0  0
  9 12  1  0  0  0  0
 10 16  1  0  0  0  0
 10 17  2  0  0  0  0
 11 14  1  0  0  0  0
 11 24  1  0  0  0  0
 12 13  2  0  0  0  0
 12 25  1  0  0  0  0
 13 15  1  0  0  0  0
 14 15  2  0  0  0  0
 17 26  1  0  0  0  0
 19 29  1  0  0  0  0
 19 30  1  0  0  0  0
 19 31  1  0  0  0  0
 20 32  1  0  0  0  0
 20 33  1  0  0  0  0
 20 34  1  0  0  0  0
 21 35  1  0  0  0  0
 21 36  1  0  0  0  0
 21 37  1  0  0  0  0
M  END
