DB00141
 OpenBabel07062211533D

 30 29  0  0  1  0  0  0  0  0999 V2000
    0.2289   -1.9870    1.5690 O   0  0  0  0  0  0  0  0  0  0  0  0
   -1.9238   -0.4300    2.0401 O   0  0  0  0  0  0  0  0  0  0  0  0
   -2.4012    1.9750    0.7191 O   0  0  0  0  0  0  0  0  0  0  0  0
   -3.4044    1.0373   -1.6589 O   0  0  0  0  0  0  0  0  0  0  0  0
    0.9813   -3.0971   -1.5711 O   0  0  0  0  0  0  0  0  0  0  0  0
    2.6563    0.8448   -1.9313 O   0  0  0  0  0  0  0  0  0  0  0  0
    1.8816   -0.0799    0.0602 N   0  0  0  0  0  0  0  0  0  0  0  0
   -0.2902   -1.2190    0.4740 C   0  0  1  0  0  0  0  0  0  0  0  0
   -0.9825    0.0285    1.0600 C   0  0  1  0  0  0  0  0  0  0  0  0
    0.8608   -0.9304   -0.4986 C   0  0  2  0  0  0  0  0  0  0  0  0
   -1.7123    0.9220    0.0430 C   0  0  1  0  0  0  0  0  0  0  0  0
   -2.7494    0.1427   -0.7649 C   0  0  0  0  0  0  0  0  0  0  0  0
    1.5496   -2.2072   -0.9429 C   0  0  0  0  0  0  0  0  0  0  0  0
    2.6951    0.7383   -0.7083 C   0  0  0  0  0  0  0  0  0  0  0  0
    3.6570    1.5387    0.1284 C   0  0  0  0  0  0  0  0  0  0  0  0
   -1.0245   -1.8763   -0.0047 H   0  0  0  0  0  0  0  0  0  0  0  0
   -0.2606    0.6311    1.6239 H   0  0  0  0  0  0  0  0  0  0  0  0
    0.4760   -0.4474   -1.4044 H   0  0  0  0  0  0  0  0  0  0  0  0
   -0.9907    1.3948   -0.6325 H   0  0  0  0  0  0  0  0  0  0  0  0
   -3.5173   -0.2890   -0.1149 H   0  0  0  0  0  0  0  0  0  0  0  0
   -2.2904   -0.6480   -1.3637 H   0  0  0  0  0  0  0  0  0  0  0  0
    2.0457   -0.1303    1.0618 H   0  0  0  0  0  0  0  0  0  0  0  0
    2.6069   -2.3304   -0.6491 H   0  0  0  0  0  0  0  0  0  0  0  0
   -0.5132   -2.1791    2.1674 H   0  0  0  0  0  0  0  0  0  0  0  0
   -2.3591    0.3552    2.4141 H   0  0  0  0  0  0  0  0  0  0  0  0
   -2.8441    2.5158    0.0430 H   0  0  0  0  0  0  0  0  0  0  0  0
   -4.0590    0.5163   -2.1547 H   0  0  0  0  0  0  0  0  0  0  0  0
    4.3541    2.0748   -0.5214 H   0  0  0  0  0  0  0  0  0  0  0  0
    3.1026    2.2613    0.7336 H   0  0  0  0  0  0  0  0  0  0  0  0
    4.2269    0.8742    0.7840 H   0  0  0  0  0  0  0  0  0  0  0  0
  1  8  1  0  0  0  0
  1 24  1  0  0  0  0
  2  9  1  0  0  0  0
  2 25  1  0  0  0  0
  3 11  1  0  0  0  0
  3 26  1  0  0  0  0
  4 12  1  0  0  0  0
  4 27  1  0  0  0  0
  5 13  2  0  0  0  0
  6 14  2  0  0  0  0
  7 10  1  0  0  0  0
  7 14  1  0  0  0  0
  7 22  1  0  0  0  0
  8  9  1  0  0  0  0
  8 10  1  0  0  0  0
  8 16  1  6  0  0  0
  9 11  1  0  0  0  0
  9 17  1  1  0  0  0
 10 13  1  0  0  0  0
 10 18  1  6  0  0  0
 11 12  1  0  0  0  0
 11 19  1  6  0  0  0
 12 20  1  0  0  0  0
 12 21  1  0  0  0  0
 13 23  1  0  0  0  0
 14 15  1  0  0  0  0
 15 28  1  0  0  0  0
 15 29  1  0  0  0  0
 15 30  1  0  0  0  0
M  END
