DB00433
 OpenBabel07062211533D

 49 52  0  0  0  0  0  0  0  0999 V2000
   -2.2767   -5.0704    0.5712 Cl  0  0  0  0  0  0  0  0  0  0  0  0
   -5.4438    0.3626    0.3432 S   0  0  0  0  0  0  0  0  0  0  0  0
    2.4091   -0.5282   -0.4652 N   0  0  0  0  0  0  0  0  0  0  0  0
    5.0063    0.3805    0.4218 N   0  0  0  0  0  0  0  0  0  0  0  0
   -2.5036   -0.0291   -0.5876 N   0  0  0  0  0  0  0  0  0  0  0  0
    2.5613    0.7163    0.2983 C   0  0  0  0  0  0  0  0  0  0  0  0
    3.6199   -0.7991   -1.2497 C   0  0  0  0  0  0  0  0  0  0  0  0
    1.2330   -0.4657   -1.3307 C   0  0  0  0  0  0  0  0  0  0  0  0
    3.7948    0.6517    1.2054 C   0  0  0  0  0  0  0  0  0  0  0  0
    4.8543   -0.8629   -0.3436 C   0  0  0  0  0  0  0  0  0  0  0  0
   -0.0577   -0.2771   -0.5305 C   0  0  0  0  0  0  0  0  0  0  0  0
   -1.3057   -0.2274   -1.4138 C   0  0  0  0  0  0  0  0  0  0  0  0
    6.1815    0.3163    1.2884 C   0  0  0  0  0  0  0  0  0  0  0  0
   -3.1489   -1.1871   -0.0846 C   0  0  0  0  0  0  0  0  0  0  0  0
   -2.8852    1.3061   -0.3009 C   0  0  0  0  0  0  0  0  0  0  0  0
   -4.4744   -1.1315    0.3899 C   0  0  0  0  0  0  0  0  0  0  0  0
   -4.1848    1.6087    0.1516 C   0  0  0  0  0  0  0  0  0  0  0  0
   -2.4902   -2.4335   -0.0012 C   0  0  0  0  0  0  0  0  0  0  0  0
   -1.9806    2.3841   -0.4190 C   0  0  0  0  0  0  0  0  0  0  0  0
   -5.1070   -2.2815    0.8949 C   0  0  0  0  0  0  0  0  0  0  0  0
   -4.5559    2.9337    0.4415 C   0  0  0  0  0  0  0  0  0  0  0  0
   -3.1222   -3.5722    0.5062 C   0  0  0  0  0  0  0  0  0  0  0  0
   -2.3533    3.6985   -0.1246 C   0  0  0  0  0  0  0  0  0  0  0  0
   -4.4330   -3.4968    0.9518 C   0  0  0  0  0  0  0  0  0  0  0  0
   -3.6432    3.9741    0.3027 C   0  0  0  0  0  0  0  0  0  0  0  0
    2.6345    1.5850   -0.3696 H   0  0  0  0  0  0  0  0  0  0  0  0
    1.7188    0.8846    0.9744 H   0  0  0  0  0  0  0  0  0  0  0  0
    3.5212   -1.7627   -1.7643 H   0  0  0  0  0  0  0  0  0  0  0  0
    3.7677   -0.0305   -2.0206 H   0  0  0  0  0  0  0  0  0  0  0  0
    1.3299    0.3434   -2.0664 H   0  0  0  0  0  0  0  0  0  0  0  0
    1.1484   -1.4038   -1.8939 H   0  0  0  0  0  0  0  0  0  0  0  0
    3.8959    1.6149    1.7202 H   0  0  0  0  0  0  0  0  0  0  0  0
    3.6474   -0.1169    1.9765 H   0  0  0  0  0  0  0  0  0  0  0  0
    4.7743   -1.7288    0.3279 H   0  0  0  0  0  0  0  0  0  0  0  0
    5.7374   -1.0201   -0.9747 H   0  0  0  0  0  0  0  0  0  0  0  0
   -0.0145    0.6375    0.0599 H   0  0  0  0  0  0  0  0  0  0  0  0
   -0.1248   -1.0776    0.2137 H   0  0  0  0  0  0  0  0  0  0  0  0
   -1.3864   -1.1404   -2.0187 H   0  0  0  0  0  0  0  0  0  0  0  0
   -1.2109    0.5646   -2.1687 H   0  0  0  0  0  0  0  0  0  0  0  0
    7.0887    0.1588    0.6945 H   0  0  0  0  0  0  0  0  0  0  0  0
    6.1089   -0.4900    2.0271 H   0  0  0  0  0  0  0  0  0  0  0  0
    6.3167    1.2629    1.8233 H   0  0  0  0  0  0  0  0  0  0  0  0
   -1.4714   -2.5630   -0.3516 H   0  0  0  0  0  0  0  0  0  0  0  0
   -0.9630    2.2580   -0.7720 H   0  0  0  0  0  0  0  0  0  0  0  0
   -6.1349   -2.2418    1.2503 H   0  0  0  0  0  0  0  0  0  0  0  0
   -5.5630    3.1696    0.7793 H   0  0  0  0  0  0  0  0  0  0  0  0
   -1.6335    4.5041   -0.2377 H   0  0  0  0  0  0  0  0  0  0  0  0
   -4.9429   -4.3714    1.3466 H   0  0  0  0  0  0  0  0  0  0  0  0
   -3.9388    4.9939    0.5289 H   0  0  0  0  0  0  0  0  0  0  0  0
  1 22  1  0  0  0  0
  2 16  1  0  0  0  0
  2 17  1  0  0  0  0
  3  6  1  0  0  0  0
  3  7  1  0  0  0  0
  3  8  1  0  0  0  0
  4  9  1  0  0  0  0
  4 10  1  0  0  0  0
  4 13  1  0  0  0  0
  5 12  1  0  0  0  0
  5 14  1  0  0  0  0
  5 15  1  0  0  0  0
  6  9  1  0  0  0  0
  6 26  1  0  0  0  0
  6 27  1  0  0  0  0
  7 10  1  0  0  0  0
  7 28  1  0  0  0  0
  7 29  1  0  0  0  0
  8 11  1  0  0  0  0
  8 30  1  0  0  0  0
  8 31  1  0  0  0  0
  9 32  1  0  0  0  0
  9 33  1  0  0  0  0
 10 34  1  0  0  0  0
 10 35  1  0  0  0  0
 11 12  1  0  0  0  0
 11 36  1  0  0  0  0
 11 37  1  0  0  0  0
 12 38  1  0  0  0  0
 12 39  1  0  0  0  0
 13 40  1  0  0  0  0
 13 41  1  0  0  0  0
 13 42  1  0  0  0  0
 14 16  2  0  0  0  0
 14 18  1  0  0  0  0
 15 17  2  0  0  0  0
 15 19  1  0  0  0  0
 16 20  1  0  0  0  0
 17 21  1  0  0  0  0
 18 22  2  0  0  0  0
 18 43  1  0  0  0  0
 19 23  2  0  0  0  0
 19 44  1  0  0  0  0
 20 24  2  0  0  0  0
 20 45  1  0  0  0  0
 21 25  2  0  0  0  0
 21 46  1  0  0  0  0
 22 24  1  0  0  0  0
 23 25  1  0  0  0  0
 23 47  1  0  0  0  0
 24 48  1  0  0  0  0
 25 49  1  0  0  0  0
M  END
