DB00282
 OpenBabel07062211533D

 24 23  0  0  1  0  0  0  0  0999 V2000
    1.2187    1.4732    0.3532 P   0  0  0  0  0  0  0  0  0  0  0  0
    1.2047   -1.5842   -0.7016 P   0  0  1  0  0  0  0  0  0  0  0  0
    1.1841   -0.6864    1.7041 O   0  0  0  0  0  0  0  0  0  0  0  0
    2.8206    1.3103    0.5018 O   0  0  0  0  0  0  0  0  0  0  0  0
    1.0379    1.8500   -1.2073 O   0  0  0  0  0  0  0  0  0  0  0  0
    2.8050   -1.4851   -0.4046 O   0  0  0  0  0  0  0  0  0  0  0  0
    0.5870    2.4311    1.3191 O   0  0  0  0  0  0  0  0  0  0  0  0
    0.9294   -1.1377   -2.1193 O   0  0  0  0  0  0  0  0  0  0  0  0
    0.6953   -2.9060   -0.1715 O   0  0  0  0  0  0  0  0  0  0  0  0
   -3.1840    0.0906   -0.1377 N   0  3  0  0  0  0  0  0  0  0  0  0
    0.6054   -0.2445    0.4659 C   0  0  1  0  0  0  0  0  0  0  0  0
   -0.9185   -0.2991    0.6917 C   0  0  0  0  0  0  0  0  0  0  0  0
   -1.7457    0.1332   -0.5074 C   0  0  0  0  0  0  0  0  0  0  0  0
   -1.2074   -1.3185    0.9795 H   0  0  0  0  0  0  0  0  0  0  0  0
   -1.1722    0.3273    1.5573 H   0  0  0  0  0  0  0  0  0  0  0  0
   -1.5351    1.1616   -0.8095 H   0  0  0  0  0  0  0  0  0  0  0  0
   -1.6220   -0.5382   -1.3605 H   0  0  0  0  0  0  0  0  0  0  0  0
    0.8810   -1.5951    1.8710 H   0  0  0  0  0  0  0  0  0  0  0  0
   -3.4769   -0.8560    0.1391 H   0  0  0  0  0  0  0  0  0  0  0  0
   -3.7772    0.3756   -0.9282 H   0  0  0  0  0  0  0  0  0  0  0  0
   -3.3937    0.7234    0.6459 H   0  0  0  0  0  0  0  0  0  0  0  0
    3.3808    2.1155    0.5097 H   0  0  0  0  0  0  0  0  0  0  0  0
    1.2748    2.7528   -1.5088 H   0  0  0  0  0  0  0  0  0  0  0  0
    3.4080   -2.0939   -0.8820 H   0  0  0  0  0  0  0  0  0  0  0  0
  1  4  1  0  0  0  0
  1  5  1  0  0  0  0
  1  7  2  0  0  0  0
  1 11  1  0  0  0  0
  2  6  1  0  0  0  0
  2  8  1  6  0  0  0
  2  9  2  0  0  0  0
  2 11  1  0  0  0  0
  3 18  1  0  0  0  0
  4 22  1  0  0  0  0
  5 23  1  0  0  0  0
  6 24  1  0  0  0  0
 10 13  1  0  0  0  0
 10 19  1  0  0  0  0
 10 20  1  0  0  0  0
 10 21  1  0  0  0  0
 11  3  1  1  0  0  0
 11 12  1  0  0  0  0
 12 13  1  0  0  0  0
 12 14  1  0  0  0  0
 12 15  1  0  0  0  0
 13 16  1  0  0  0  0
 13 17  1  0  0  0  0
M  CHG  1  10   1
M  END
