DB00239
 OpenBabel07062211533D

 39 41  0  0  0  0  0  0  0  0999 V2000
   -2.5882   -2.8507    1.7295 Cl  0  0  0  0  0  0  0  0  0  0  0  0
    3.0754    1.1533   -2.3024 Cl  0  0  0  0  0  0  0  0  0  0  0  0
   -7.0595   -1.5522   -0.9673 Cl  0  0  0  0  0  0  0  0  0  0  0  0
    7.4259    0.0160    0.6561 Cl  0  0  0  0  0  0  0  0  0  0  0  0
    0.9031   -0.6785   -0.1196 O   0  0  0  0  0  0  0  0  0  0  0  0
   -0.9443    1.8929    0.9468 N   0  0  0  0  0  0  0  0  0  0  0  0
   -0.3960   -1.0287   -0.5004 N   0  0  0  0  0  0  0  0  0  0  0  0
   -1.6594    3.9225    0.4890 N   0  0  0  0  0  0  0  0  0  0  0  0
   -0.9709    0.4985    1.3938 C   0  0  0  0  0  0  0  0  0  0  0  0
   -1.3185   -0.4702    0.2514 C   0  0  0  0  0  0  0  0  0  0  0  0
   -2.7202   -0.7635   -0.0221 C   0  0  0  0  0  0  0  0  0  0  0  0
   -3.3874   -1.8210    0.5963 C   0  0  0  0  0  0  0  0  0  0  0  0
   -3.3947    0.0495   -0.9330 C   0  0  0  0  0  0  0  0  0  0  0  0
    0.1396    2.5440    0.4645 C   0  0  0  0  0  0  0  0  0  0  0  0
    3.2137   -0.9697   -0.6001 C   0  0  0  0  0  0  0  0  0  0  0  0
    1.8113   -1.3324   -0.9917 C   0  0  0  0  0  0  0  0  0  0  0  0
   -2.0012    2.7397    0.9495 C   0  0  0  0  0  0  0  0  0  0  0  0
   -4.7290   -2.0654    0.3035 C   0  0  0  0  0  0  0  0  0  0  0  0
   -4.7363   -0.1950   -1.2256 C   0  0  0  0  0  0  0  0  0  0  0  0
   -0.3262    3.8071    0.1844 C   0  0  0  0  0  0  0  0  0  0  0  0
   -5.4035   -1.2525   -0.6074 C   0  0  0  0  0  0  0  0  0  0  0  0
    3.8564    0.1372   -1.1462 C   0  0  0  0  0  0  0  0  0  0  0  0
    3.8636   -1.7742    0.3316 C   0  0  0  0  0  0  0  0  0  0  0  0
    5.1607    0.4427   -0.7574 C   0  0  0  0  0  0  0  0  0  0  0  0
    5.1678   -1.4687    0.7202 C   0  0  0  0  0  0  0  0  0  0  0  0
    5.8165   -0.3603    0.1757 C   0  0  0  0  0  0  0  0  0  0  0  0
   -0.0068    0.2667    1.8555 H   0  0  0  0  0  0  0  0  0  0  0  0
   -1.7336    0.4288    2.1782 H   0  0  0  0  0  0  0  0  0  0  0  0
   -2.8867    0.8729   -1.4285 H   0  0  0  0  0  0  0  0  0  0  0  0
    1.1149    2.0893    0.3641 H   0  0  0  0  0  0  0  0  0  0  0  0
    1.5937   -1.0803   -2.0357 H   0  0  0  0  0  0  0  0  0  0  0  0
    1.6725   -2.4187   -0.9062 H   0  0  0  0  0  0  0  0  0  0  0  0
   -2.9881    2.4596    1.2920 H   0  0  0  0  0  0  0  0  0  0  0  0
   -5.2513   -2.8896    0.7849 H   0  0  0  0  0  0  0  0  0  0  0  0
   -5.2488    0.4460   -1.9384 H   0  0  0  0  0  0  0  0  0  0  0  0
    0.2312    4.6397   -0.2197 H   0  0  0  0  0  0  0  0  0  0  0  0
    3.3697   -2.6390    0.7664 H   0  0  0  0  0  0  0  0  0  0  0  0
    5.6679    1.3071   -1.1808 H   0  0  0  0  0  0  0  0  0  0  0  0
    5.6664   -2.1028    1.4489 H   0  0  0  0  0  0  0  0  0  0  0  0
  1 12  1  0  0  0  0
  2 22  1  0  0  0  0
  3 21  1  0  0  0  0
  4 26  1  0  0  0  0
  5  7  1  0  0  0  0
  5 16  1  0  0  0  0
  6  9  1  0  0  0  0
  6 14  1  0  0  0  0
  6 17  2  0  0  0  0
  7 10  2  0  0  0  0
  8 17  1  0  0  0  0
  8 20  2  0  0  0  0
  9 10  1  0  0  0  0
  9 27  1  0  0  0  0
  9 28  1  0  0  0  0
 10 11  1  0  0  0  0
 11 12  2  0  0  0  0
 11 13  1  0  0  0  0
 12 18  1  0  0  0  0
 13 19  2  0  0  0  0
 13 29  1  0  0  0  0
 14 20  1  0  0  0  0
 14 30  1  0  0  0  0
 15 16  1  0  0  0  0
 15 22  2  0  0  0  0
 15 23  1  0  0  0  0
 16 31  1  0  0  0  0
 16 32  1  0  0  0  0
 17 33  1  0  0  0  0
 18 21  2  0  0  0  0
 18 34  1  0  0  0  0
 19 21  1  0  0  0  0
 19 35  1  0  0  0  0
 20 36  1  0  0  0  0
 22 24  1  0  0  0  0
 23 25  2  0  0  0  0
 23 37  1  0  0  0  0
 24 26  2  0  0  0  0
 24 38  1  0  0  0  0
 25 26  1  0  0  0  0
 25 39  1  0  0  0  0
M  END
