DB00910
 OpenBabel07062211533D

 74 76  0  0  1  0  0  0  0  0999 V2000
    8.1914    1.5650    0.3982 O   0  0  0  0  0  0  0  0  0  0  0  0
   -8.9994    0.4681   -1.0671 O   0  0  0  0  0  0  0  0  0  0  0  0
   -5.1749    2.3790   -1.6552 O   0  0  0  0  0  0  0  0  0  0  0  0
    0.0593   -1.3838    0.0855 C   0  0  2  0  0  0  0  0  0  0  0  0
    1.4365   -0.9499    0.6433 C   0  0  2  0  0  0  0  0  0  0  0  0
   -0.8536   -0.8547    1.2192 C   0  0  1  0  0  0  0  0  0  0  0  0
    1.1791    0.4634    1.2152 C   0  0  0  0  0  0  0  0  0  0  0  0
   -0.3394    0.5675    1.4500 C   0  0  0  0  0  0  0  0  0  0  0  0
   -0.1305   -2.9106   -0.0218 C   0  0  0  0  0  0  0  0  0  0  0  0
    2.6060   -0.9916   -0.3298 C   0  0  2  0  0  0  0  0  0  0  0  0
   -2.3017   -1.1545    0.9412 C   0  0  0  0  0  0  0  0  0  0  0  0
   -0.2280   -0.7262   -1.2889 C   0  0  0  0  0  0  0  0  0  0  0  0
   -1.6052   -3.2859   -0.2552 C   0  0  0  0  0  0  0  0  0  0  0  0
   -2.5658   -2.6344    0.7529 C   0  0  0  0  0  0  0  0  0  0  0  0
    2.8189   -2.4093   -0.8654 C   0  0  0  0  0  0  0  0  0  0  0  0
    3.8666   -0.5001    0.3397 C   0  0  0  0  0  0  0  0  0  0  0  0
   -3.2783   -0.2396    0.8682 C   0  0  0  0  0  0  0  0  0  0  0  0
    4.5634    0.5696   -0.0739 C   0  0  0  0  0  0  0  0  0  0  0  0
   -4.6563   -0.5734    0.6067 C   0  0  0  0  0  0  0  0  0  0  0  0
    5.8235    1.0621    0.6008 C   0  0  1  0  0  0  0  0  0  0  0  0
   -5.6337    0.3416    0.5335 C   0  0  0  0  0  0  0  0  0  0  0  0
    7.0728    1.0407   -0.3319 C   0  0  0  0  0  0  0  0  0  0  0  0
   -7.0653   -0.0308    0.2594 C   0  0  0  0  0  0  0  0  0  0  0  0
   -5.3725    1.8194    0.6938 C   0  0  0  0  0  0  0  0  0  0  0  0
    5.5534    2.4463    1.2086 C   0  0  0  0  0  0  0  0  0  0  0  0
   -7.6088    0.7488   -0.9391 C   0  0  2  0  0  0  0  0  0  0  0  0
   -5.9482    2.6196   -0.4803 C   0  0  2  0  0  0  0  0  0  0  0  0
   -7.4076    2.2590   -0.7649 C   0  0  0  0  0  0  0  0  0  0  0  0
    6.9279    1.9109   -1.5851 C   0  0  0  0  0  0  0  0  0  0  0  0
    7.4434   -0.3911   -0.7460 C   0  0  0  0  0  0  0  0  0  0  0  0
    1.6771   -1.5990    1.5005 H   0  0  0  0  0  0  0  0  0  0  0  0
   -0.6184   -1.4064    2.1451 H   0  0  0  0  0  0  0  0  0  0  0  0
    1.4947    1.2569    0.5281 H   0  0  0  0  0  0  0  0  0  0  0  0
    1.7260    0.6051    2.1542 H   0  0  0  0  0  0  0  0  0  0  0  0
   -0.5655    0.9238    2.4605 H   0  0  0  0  0  0  0  0  0  0  0  0
   -0.7718    1.2844    0.7430 H   0  0  0  0  0  0  0  0  0  0  0  0
    0.2129   -3.3978    0.8998 H   0  0  0  0  0  0  0  0  0  0  0  0
    0.4363   -3.3512   -0.8422 H   0  0  0  0  0  0  0  0  0  0  0  0
    2.4032   -0.3407   -1.1898 H   0  0  0  0  0  0  0  0  0  0  0  0
   -1.2804   -0.8112   -1.5767 H   0  0  0  0  0  0  0  0  0  0  0  0
    0.0134    0.3415   -1.2991 H   0  0  0  0  0  0  0  0  0  0  0  0
    0.3546   -1.1974   -2.0869 H   0  0  0  0  0  0  0  0  0  0  0  0
   -1.7096   -4.3763   -0.1987 H   0  0  0  0  0  0  0  0  0  0  0  0
   -1.9016   -3.0029   -1.2725 H   0  0  0  0  0  0  0  0  0  0  0  0
   -2.4207   -3.1200    1.7277 H   0  0  0  0  0  0  0  0  0  0  0  0
   -3.5729   -2.9060    0.4403 H   0  0  0  0  0  0  0  0  0  0  0  0
    2.7218   -3.1699   -0.0835 H   0  0  0  0  0  0  0  0  0  0  0  0
    2.1388   -2.6339   -1.6897 H   0  0  0  0  0  0  0  0  0  0  0  0
    3.8265   -2.5144   -1.2877 H   0  0  0  0  0  0  0  0  0  0  0  0
    4.2190   -1.0636    1.2008 H   0  0  0  0  0  0  0  0  0  0  0  0
   -2.9900    0.7874    1.0345 H   0  0  0  0  0  0  0  0  0  0  0  0
    4.2020    1.1354   -0.9289 H   0  0  0  0  0  0  0  0  0  0  0  0
   -4.9586   -1.6031    0.4731 H   0  0  0  0  0  0  0  0  0  0  0  0
    6.0502    0.4091    1.4562 H   0  0  0  0  0  0  0  0  0  0  0  0
   -7.1809   -1.1065    0.0764 H   0  0  0  0  0  0  0  0  0  0  0  0
   -7.6717    0.1815    1.1498 H   0  0  0  0  0  0  0  0  0  0  0  0
   -5.8695    2.1444    1.6176 H   0  0  0  0  0  0  0  0  0  0  0  0
   -4.3273    2.1054    0.7982 H   0  0  0  0  0  0  0  0  0  0  0  0
   -7.1165    0.4169   -1.8614 H   0  0  0  0  0  0  0  0  0  0  0  0
   -5.8809    3.6919   -0.2641 H   0  0  0  0  0  0  0  0  0  0  0  0
    5.2825    3.1834    0.4455 H   0  0  0  0  0  0  0  0  0  0  0  0
    4.7244    2.3979    1.9245 H   0  0  0  0  0  0  0  0  0  0  0  0
    6.4272    2.8222    1.7505 H   0  0  0  0  0  0  0  0  0  0  0  0
   -7.7549    2.7665   -1.6735 H   0  0  0  0  0  0  0  0  0  0  0  0
   -8.0462    2.6198    0.0518 H   0  0  0  0  0  0  0  0  0  0  0  0
    7.8602    1.9093   -2.1629 H   0  0  0  0  0  0  0  0  0  0  0  0
    6.1261    1.5631   -2.2432 H   0  0  0  0  0  0  0  0  0  0  0  0
    6.7413    2.9582   -1.3261 H   0  0  0  0  0  0  0  0  0  0  0  0
    7.5874   -1.0268    0.1350 H   0  0  0  0  0  0  0  0  0  0  0  0
    6.6772   -0.8469   -1.3810 H   0  0  0  0  0  0  0  0  0  0  0  0
    8.3939   -0.4040   -1.2922 H   0  0  0  0  0  0  0  0  0  0  0  0
    8.3188    1.0116    1.1878 H   0  0  0  0  0  0  0  0  0  0  0  0
   -9.0949   -0.4912   -1.1950 H   0  0  0  0  0  0  0  0  0  0  0  0
   -4.2561    2.6284   -1.4580 H   0  0  0  0  0  0  0  0  0  0  0  0
  1 22  1  0  0  0  0
  1 72  1  0  0  0  0
  2 26  1  0  0  0  0
  2 73  1  0  0  0  0
  3 27  1  0  0  0  0
  3 74  1  0  0  0  0
  4  5  1  1  0  0  0
  4  9  1  0  0  0  0
  4 12  1  0  0  0  0
  5  7  1  0  0  0  0
  5 10  1  0  0  0  0
  5 31  1  1  0  0  0
  6  4  1  6  0  0  0
  6  8  1  0  0  0  0
  6 11  1  0  0  0  0
  6 32  1  0  0  0  0
  7  8  1  0  0  0  0
  7 33  1  0  0  0  0
  7 34  1  0  0  0  0
  8 35  1  0  0  0  0
  8 36  1  0  0  0  0
  9 13  1  0  0  0  0
  9 37  1  0  0  0  0
  9 38  1  0  0  0  0
 10 15  1  0  0  0  0
 10 16  1  0  0  0  0
 10 39  1  6  0  0  0
 11 14  1  0  0  0  0
 11 17  2  0  0  0  0
 12 40  1  0  0  0  0
 12 41  1  0  0  0  0
 12 42  1  0  0  0  0
 13 14  1  0  0  0  0
 13 43  1  0  0  0  0
 13 44  1  0  0  0  0
 14 45  1  0  0  0  0
 14 46  1  0  0  0  0
 15 47  1  0  0  0  0
 15 48  1  0  0  0  0
 15 49  1  0  0  0  0
 16 18  2  0  0  0  0
 16 50  1  0  0  0  0
 17 19  1  0  0  0  0
 17 51  1  0  0  0  0
 18 20  1  0  0  0  0
 18 52  1  0  0  0  0
 19 21  2  0  0  0  0
 19 53  1  0  0  0  0
 20 22  1  0  0  0  0
 20 25  1  0  0  0  0
 20 54  1  1  0  0  0
 21 23  1  0  0  0  0
 21 24  1  0  0  0  0
 22 29  1  0  0  0  0
 22 30  1  0  0  0  0
 23 26  1  0  0  0  0
 23 55  1  0  0  0  0
 23 56  1  0  0  0  0
 24 27  1  0  0  0  0
 24 57  1  0  0  0  0
 24 58  1  0  0  0  0
 25 61  1  0  0  0  0
 25 62  1  0  0  0  0
 25 63  1  0  0  0  0
 26 28  1  0  0  0  0
 26 59  1  6  0  0  0
 27 28  1  0  0  0  0
 27 60  1  1  0  0  0
 28 64  1  0  0  0  0
 28 65  1  0  0  0  0
 29 66  1  0  0  0  0
 29 67  1  0  0  0  0
 29 68  1  0  0  0  0
 30 69  1  0  0  0  0
 30 70  1  0  0  0  0
 30 71  1  0  0  0  0
M  END
