DB00543
 OpenBabel07062211533D

 38 41  0  0  0  0  0  0  0  0999 V2000
    1.4057   -4.0355   -2.0531 Cl  0  0  0  0  0  0  0  0  0  0  0  0
   -2.2187   -0.8766    1.3288 O   0  0  0  0  0  0  0  0  0  0  0  0
    1.4522    0.7252    0.4474 N   0  0  0  0  0  0  0  0  0  0  0  0
    4.2810    1.0239    0.2185 N   0  0  0  0  0  0  0  0  0  0  0  0
   -0.7313    1.4139    0.3565 N   0  0  0  0  0  0  0  0  0  0  0  0
    2.0189    2.0283    0.1064 C   0  0  0  0  0  0  0  0  0  0  0  0
    2.3386   -0.1729    1.1848 C   0  0  0  0  0  0  0  0  0  0  0  0
    3.3710    1.8483   -0.5821 C   0  0  0  0  0  0  0  0  0  0  0  0
    3.6818   -0.2907    0.4662 C   0  0  0  0  0  0  0  0  0  0  0  0
    0.1414    0.4449    0.2643 C   0  0  0  0  0  0  0  0  0  0  0  0
   -0.2080   -0.9766   -0.0273 C   0  0  0  0  0  0  0  0  0  0  0  0
   -1.3444   -1.5699    0.5283 C   0  0  0  0  0  0  0  0  0  0  0  0
   -2.1120    1.2468    0.1750 C   0  0  0  0  0  0  0  0  0  0  0  0
    0.6410   -1.7472   -0.8321 C   0  0  0  0  0  0  0  0  0  0  0  0
   -2.8386    0.1612    0.6753 C   0  0  0  0  0  0  0  0  0  0  0  0
   -1.6143   -2.9250    0.3168 C   0  0  0  0  0  0  0  0  0  0  0  0
    0.3591   -3.0957   -1.0611 C   0  0  0  0  0  0  0  0  0  0  0  0
   -0.7637   -3.6852   -0.4829 C   0  0  0  0  0  0  0  0  0  0  0  0
   -2.8184    2.2714   -0.4692 C   0  0  0  0  0  0  0  0  0  0  0  0
   -4.2303    0.1007    0.5554 C   0  0  0  0  0  0  0  0  0  0  0  0
   -4.2067    2.2080   -0.6122 C   0  0  0  0  0  0  0  0  0  0  0  0
   -4.9127    1.1242   -0.0965 C   0  0  0  0  0  0  0  0  0  0  0  0
    2.1303    2.6245    1.0204 H   0  0  0  0  0  0  0  0  0  0  0  0
    1.3605    2.5862   -0.5700 H   0  0  0  0  0  0  0  0  0  0  0  0
    1.9266   -1.1702    1.3648 H   0  0  0  0  0  0  0  0  0  0  0  0
    2.5000    0.2556    2.1832 H   0  0  0  0  0  0  0  0  0  0  0  0
    3.2331    1.3925   -1.5707 H   0  0  0  0  0  0  0  0  0  0  0  0
    3.8283    2.8307   -0.7419 H   0  0  0  0  0  0  0  0  0  0  0  0
    4.3683   -0.8759    1.0881 H   0  0  0  0  0  0  0  0  0  0  0  0
    3.5747   -0.8308   -0.4811 H   0  0  0  0  0  0  0  0  0  0  0  0
    5.1594    0.9047   -0.2851 H   0  0  0  0  0  0  0  0  0  0  0  0
    1.5047   -1.2978   -1.3140 H   0  0  0  0  0  0  0  0  0  0  0  0
   -2.4892   -3.3888    0.7640 H   0  0  0  0  0  0  0  0  0  0  0  0
   -0.9889   -4.7357   -0.6480 H   0  0  0  0  0  0  0  0  0  0  0  0
   -2.2876    3.1371   -0.8595 H   0  0  0  0  0  0  0  0  0  0  0  0
   -4.7825   -0.7436    0.9589 H   0  0  0  0  0  0  0  0  0  0  0  0
   -4.7364    3.0110   -1.1166 H   0  0  0  0  0  0  0  0  0  0  0  0
   -5.9926    1.0790   -0.1999 H   0  0  0  0  0  0  0  0  0  0  0  0
  1 17  1  0  0  0  0
  2 12  1  0  0  0  0
  2 15  1  0  0  0  0
  3  6  1  0  0  0  0
  3  7  1  0  0  0  0
  3 10  1  0  0  0  0
  4  8  1  0  0  0  0
  4  9  1  0  0  0  0
  4 31  1  0  0  0  0
  5 10  2  0  0  0  0
  5 13  1  0  0  0  0
  6  8  1  0  0  0  0
  6 23  1  0  0  0  0
  6 24  1  0  0  0  0
  7  9  1  0  0  0  0
  7 25  1  0  0  0  0
  7 26  1  0  0  0  0
  8 27  1  0  0  0  0
  8 28  1  0  0  0  0
  9 29  1  0  0  0  0
  9 30  1  0  0  0  0
 10 11  1  0  0  0  0
 11 12  2  0  0  0  0
 11 14  1  0  0  0  0
 12 16  1  0  0  0  0
 13 15  2  0  0  0  0
 13 19  1  0  0  0  0
 14 17  2  0  0  0  0
 14 32  1  0  0  0  0
 15 20  1  0  0  0  0
 16 18  2  0  0  0  0
 16 33  1  0  0  0  0
 17 18  1  0  0  0  0
 18 34  1  0  0  0  0
 19 21  2  0  0  0  0
 19 35  1  0  0  0  0
 20 22  2  0  0  0  0
 20 36  1  0  0  0  0
 21 22  1  0  0  0  0
 21 37  1  0  0  0  0
 22 38  1  0  0  0  0
M  END
