DB00230
 OpenBabel07062211533D

 28 27  0  0  1  0  0  0  0  0999 V2000
   -1.6966    2.4126    0.9553 O   0  0  0  0  0  0  0  0  0  0  0  0
   -2.8676    2.1296   -0.9750 O   0  0  0  0  0  0  0  0  0  0  0  0
   -2.2808   -1.7457   -0.6234 N   0  0  0  0  0  0  0  0  0  0  0  0
   -0.5699   -0.2165    0.3603 C   0  0  1  0  0  0  0  0  0  0  0  0
    0.5945   -1.1626   -0.0214 C   0  0  0  0  0  0  0  0  0  0  0  0
    1.9963   -0.5229   -0.0922 C   0  0  0  0  0  0  0  0  0  0  0  0
   -0.7878    0.9277   -0.6472 C   0  0  0  0  0  0  0  0  0  0  0  0
   -1.8354   -1.0735    0.5927 C   0  0  0  0  0  0  0  0  0  0  0  0
    2.4084    0.1309    1.2271 C   0  0  0  0  0  0  0  0  0  0  0  0
    2.0298    0.5181   -1.2156 C   0  0  0  0  0  0  0  0  0  0  0  0
   -1.8991    1.8766   -0.2728 C   0  0  0  0  0  0  0  0  0  0  0  0
   -0.3374    0.2298    1.3354 H   0  0  0  0  0  0  0  0  0  0  0  0
    0.3936   -1.6340   -0.9917 H   0  0  0  0  0  0  0  0  0  0  0  0
    0.6406   -1.9794    0.7115 H   0  0  0  0  0  0  0  0  0  0  0  0
    2.7118   -1.3205   -0.3289 H   0  0  0  0  0  0  0  0  0  0  0  0
   -0.9891    0.5404   -1.6518 H   0  0  0  0  0  0  0  0  0  0  0  0
    0.0525    1.6087   -0.7057 H   0  0  0  0  0  0  0  0  0  0  0  0
   -2.6499   -0.4416    0.9634 H   0  0  0  0  0  0  0  0  0  0  0  0
   -1.6454   -1.8236    1.3693 H   0  0  0  0  0  0  0  0  0  0  0  0
    2.3399   -0.5858    2.0520 H   0  0  0  0  0  0  0  0  0  0  0  0
    1.7877    0.9976    1.4749 H   0  0  0  0  0  0  0  0  0  0  0  0
    3.4466    0.4762    1.1710 H   0  0  0  0  0  0  0  0  0  0  0  0
    1.9378    1.5494   -0.8658 H   0  0  0  0  0  0  0  0  0  0  0  0
    1.3500    0.2974   -2.0431 H   0  0  0  0  0  0  0  0  0  0  0  0
    3.0346    0.4891   -1.6604 H   0  0  0  0  0  0  0  0  0  0  0  0
   -3.1447   -2.2507   -0.4292 H   0  0  0  0  0  0  0  0  0  0  0  0
   -1.6029   -2.4540   -0.8993 H   0  0  0  0  0  0  0  0  0  0  0  0
   -2.4177    3.0267    1.2106 H   0  0  0  0  0  0  0  0  0  0  0  0
  1 11  1  0  0  0  0
  1 28  1  0  0  0  0
  2 11  2  0  0  0  0
  3  8  1  0  0  0  0
  3 26  1  0  0  0  0
  3 27  1  0  0  0  0
  4  5  1  0  0  0  0
  4  7  1  0  0  0  0
  4  8  1  0  0  0  0
  4 12  1  1  0  0  0
  5  6  1  0  0  0  0
  5 13  1  0  0  0  0
  5 14  1  0  0  0  0
  6  9  1  0  0  0  0
  6 10  1  0  0  0  0
  6 15  1  0  0  0  0
  7 11  1  0  0  0  0
  7 16  1  0  0  0  0
  7 17  1  0  0  0  0
  8 18  1  0  0  0  0
  8 19  1  0  0  0  0
  9 20  1  0  0  0  0
  9 21  1  0  0  0  0
  9 22  1  0  0  0  0
 10 23  1  0  0  0  0
 10 24  1  0  0  0  0
 10 25  1  0  0  0  0
M  END
