DB00891
 OpenBabel07062211533D

 28 29  0  0  0  0  0  0  0  0999 V2000
    0.3333    2.4895   -0.7078 S   0  0  0  0  0  0  0  0  0  0  0  0
   -0.2579    3.7425   -0.2530 O   0  0  0  0  0  0  0  0  0  0  0  0
    0.8585    2.4128   -2.0655 O   0  0  0  0  0  0  0  0  0  0  0  0
    1.5631    2.0409    0.4123 N   0  0  0  0  0  0  0  0  0  0  0  0
    2.7799    0.3889   -0.7519 N   0  0  0  0  0  0  0  0  0  0  0  0
   -3.7287   -1.7938    0.0071 N   0  0  0  0  0  0  0  0  0  0  0  0
   -0.8593    1.2316   -0.4979 C   0  0  0  0  0  0  0  0  0  0  0  0
   -1.8770    1.3857    0.4436 C   0  0  0  0  0  0  0  0  0  0  0  0
   -0.7944    0.0727   -1.2714 C   0  0  0  0  0  0  0  0  0  0  0  0
    2.0746    0.6981    0.3538 C   0  0  0  0  0  0  0  0  0  0  0  0
   -2.7649   -0.7780   -0.1617 C   0  0  0  0  0  0  0  0  0  0  0  0
   -2.8297    0.3808    0.6116 C   0  0  0  0  0  0  0  0  0  0  0  0
   -1.7472   -0.9321   -1.1033 C   0  0  0  0  0  0  0  0  0  0  0  0
    1.8242   -0.1707    1.3972 C   0  0  0  0  0  0  0  0  0  0  0  0
    2.3379   -1.4590    1.2984 C   0  0  0  0  0  0  0  0  0  0  0  0
    3.0721   -1.8245    0.1756 C   0  0  0  0  0  0  0  0  0  0  0  0
    3.2631   -0.8722   -0.8126 C   0  0  0  0  0  0  0  0  0  0  0  0
    1.4329    2.3995    1.3678 H   0  0  0  0  0  0  0  0  0  0  0  0
   -1.9429    2.2761    1.0623 H   0  0  0  0  0  0  0  0  0  0  0  0
   -0.0110   -0.0696   -2.0103 H   0  0  0  0  0  0  0  0  0  0  0  0
   -3.6169    0.5119    1.3496 H   0  0  0  0  0  0  0  0  0  0  0  0
   -1.6856   -1.8308   -1.7117 H   0  0  0  0  0  0  0  0  0  0  0  0
    1.2481    0.1262    2.2667 H   0  0  0  0  0  0  0  0  0  0  0  0
    2.1653   -2.1772    2.0944 H   0  0  0  0  0  0  0  0  0  0  0  0
   -4.4657   -1.6836    0.6908 H   0  0  0  0  0  0  0  0  0  0  0  0
   -3.6809   -2.6350   -0.5522 H   0  0  0  0  0  0  0  0  0  0  0  0
    3.4814   -2.8233    0.0769 H   0  0  0  0  0  0  0  0  0  0  0  0
    3.8278   -1.1073   -1.7087 H   0  0  0  0  0  0  0  0  0  0  0  0
  1  2  2  0  0  0  0
  1  3  2  0  0  0  0
  1  4  1  0  0  0  0
  1  7  1  0  0  0  0
  4 10  1  0  0  0  0
  4 18  1  0  0  0  0
  5 10  2  0  0  0  0
  5 17  1  0  0  0  0
  6 11  1  0  0  0  0
  6 25  1  0  0  0  0
  6 26  1  0  0  0  0
  7  8  2  0  0  0  0
  7  9  1  0  0  0  0
  8 12  1  0  0  0  0
  8 19  1  0  0  0  0
  9 13  2  0  0  0  0
  9 20  1  0  0  0  0
 10 14  1  0  0  0  0
 11 12  2  0  0  0  0
 11 13  1  0  0  0  0
 12 21  1  0  0  0  0
 13 22  1  0  0  0  0
 14 15  2  0  0  0  0
 14 23  1  0  0  0  0
 15 16  1  0  0  0  0
 15 24  1  0  0  0  0
 16 17  2  0  0  0  0
 16 27  1  0  0  0  0
 17 28  1  0  0  0  0
M  END
