DB00402
 OpenBabel07062211533D

 44 47  0  0  1  0  0  0  0  0999 V2000
   -6.7757    3.2938    0.4148 Cl  0  0  0  0  0  0  0  0  0  0  0  0
   -0.6665    0.2683   -0.7041 O   0  0  0  0  0  0  0  0  0  0  0  0
    0.5147   -0.2351   -2.5956 O   0  0  0  0  0  0  0  0  0  0  0  0
   -3.2104   -2.1975    1.9615 O   0  0  0  0  0  0  0  0  0  0  0  0
    1.5436    0.8979   -0.8471 N   0  0  0  0  0  0  0  0  0  0  0  0
    3.9508    1.4757    0.5839 N   0  0  0  0  0  0  0  0  0  0  0  0
   -2.6302   -0.8131    0.1150 N   0  0  0  0  0  0  0  0  0  0  0  0
    0.1842   -2.6507   -1.2344 N   0  0  0  0  0  0  0  0  0  0  0  0
   -0.9957   -3.8551    1.0698 N   0  0  0  0  0  0  0  0  0  0  0  0
   -4.5538    0.0744    1.1671 N   0  0  0  0  0  0  0  0  0  0  0  0
    1.4808    1.4951    0.4885 C   0  0  0  0  0  0  0  0  0  0  0  0
    2.7938    1.1226   -1.5679 C   0  0  0  0  0  0  0  0  0  0  0  0
    2.7187    1.1347    1.3110 C   0  0  0  0  0  0  0  0  0  0  0  0
    4.0023    0.7658   -0.7031 C   0  0  0  0  0  0  0  0  0  0  0  0
   -1.5595   -0.8354   -0.8934 C   0  0  2  0  0  0  0  0  0  0  0  0
    0.4660    0.2676   -1.4744 C   0  0  0  0  0  0  0  0  0  0  0  0
    5.1280    1.1594    1.3918 C   0  0  0  0  0  0  0  0  0  0  0  0
   -0.8521   -2.1147   -0.5810 C   0  0  0  0  0  0  0  0  0  0  0  0
   -1.4047   -2.7073    0.5261 C   0  0  0  0  0  0  0  0  0  0  0  0
   -2.5261   -1.9069    0.9973 C   0  0  0  0  0  0  0  0  0  0  0  0
   -3.6185    0.1625    0.1885 C   0  0  0  0  0  0  0  0  0  0  0  0
   -3.5924    1.1839   -0.7538 C   0  0  0  0  0  0  0  0  0  0  0  0
    0.6273   -3.8175   -0.7070 C   0  0  0  0  0  0  0  0  0  0  0  0
    0.0527   -4.4040    0.4165 C   0  0  0  0  0  0  0  0  0  0  0  0
   -4.5756    2.1649   -0.6886 C   0  0  0  0  0  0  0  0  0  0  0  0
   -5.4933    1.0460    1.1990 C   0  0  0  0  0  0  0  0  0  0  0  0
   -5.5479    2.1020    0.3034 C   0  0  0  0  0  0  0  0  0  0  0  0
    0.5820    1.1736    1.0227 H   0  0  0  0  0  0  0  0  0  0  0  0
    1.4115    2.5812    0.3522 H   0  0  0  0  0  0  0  0  0  0  0  0
    2.8198    2.1832   -1.8467 H   0  0  0  0  0  0  0  0  0  0  0  0
    2.8132    0.5406   -2.4949 H   0  0  0  0  0  0  0  0  0  0  0  0
    2.6769    1.6858    2.2581 H   0  0  0  0  0  0  0  0  0  0  0  0
    2.6979    0.0631    1.5511 H   0  0  0  0  0  0  0  0  0  0  0  0
    4.0304   -0.3204   -0.5431 H   0  0  0  0  0  0  0  0  0  0  0  0
    4.9122    1.0426   -1.2488 H   0  0  0  0  0  0  0  0  0  0  0  0
   -1.9922   -0.8510   -1.9009 H   0  0  0  0  0  0  0  0  0  0  0  0
    5.1108    1.7213    2.3324 H   0  0  0  0  0  0  0  0  0  0  0  0
    6.0441    1.4533    0.8677 H   0  0  0  0  0  0  0  0  0  0  0  0
    5.1938    0.0915    1.6291 H   0  0  0  0  0  0  0  0  0  0  0  0
   -2.8565    1.2596   -1.5455 H   0  0  0  0  0  0  0  0  0  0  0  0
    1.4677   -4.2751   -1.2158 H   0  0  0  0  0  0  0  0  0  0  0  0
    0.4254   -5.3382    0.8197 H   0  0  0  0  0  0  0  0  0  0  0  0
   -4.5743    2.9712   -1.4173 H   0  0  0  0  0  0  0  0  0  0  0  0
   -6.2231    0.9404    1.9960 H   0  0  0  0  0  0  0  0  0  0  0  0
  1 27  1  0  0  0  0
  2 15  1  0  0  0  0
  2 16  1  0  0  0  0
  3 16  2  0  0  0  0
  4 20  2  0  0  0  0
  5 11  1  0  0  0  0
  5 12  1  0  0  0  0
  5 16  1  0  0  0  0
  6 13  1  0  0  0  0
  6 14  1  0  0  0  0
  6 17  1  0  0  0  0
  7 15  1  0  0  0  0
  7 20  1  0  0  0  0
  7 21  1  0  0  0  0
  8 18  2  0  0  0  0
  8 23  1  0  0  0  0
  9 19  2  0  0  0  0
  9 24  1  0  0  0  0
 10 21  2  0  0  0  0
 10 26  1  0  0  0  0
 11 13  1  0  0  0  0
 11 28  1  0  0  0  0
 11 29  1  0  0  0  0
 12 14  1  0  0  0  0
 12 30  1  0  0  0  0
 12 31  1  0  0  0  0
 13 32  1  0  0  0  0
 13 33  1  0  0  0  0
 14 34  1  0  0  0  0
 14 35  1  0  0  0  0
 15 18  1  0  0  0  0
 15 36  1  6  0  0  0
 17 37  1  0  0  0  0
 17 38  1  0  0  0  0
 17 39  1  0  0  0  0
 18 19  1  0  0  0  0
 19 20  1  0  0  0  0
 21 22  1  0  0  0  0
 22 25  2  0  0  0  0
 22 40  1  0  0  0  0
 23 24  2  0  0  0  0
 23 41  1  0  0  0  0
 24 42  1  0  0  0  0
 25 27  1  0  0  0  0
 25 43  1  0  0  0  0
 26 27  2  0  0  0  0
 26 44  1  0  0  0  0
M  END
