DB00905
 OpenBabel07062211533D

 67 68  0  0  1  0  0  0  0  0999 V2000
   -5.3363    1.4509   -1.6746 O   0  0  0  0  0  0  0  0  0  0  0  0
   -6.2258   -1.2867    0.4441 O   0  0  0  0  0  0  0  0  0  0  0  0
   -1.9231   -4.5071    1.3888 O   0  0  0  0  0  0  0  0  0  0  0  0
    3.9854    2.3911   -0.8736 O   0  0  0  0  0  0  0  0  0  0  0  0
    4.4447    1.1959    1.0649 N   0  0  0  0  0  0  0  0  0  0  0  0
   -3.5329    1.0083   -0.0642 C   0  0  2  0  0  0  0  0  0  0  0  0
   -3.9632   -0.4510    0.1555 C   0  0  2  0  0  0  0  0  0  0  0  0
   -4.8672    1.7022   -0.3552 C   0  0  2  0  0  0  0  0  0  0  0  0
   -5.2889   -0.3324    0.9281 C   0  0  1  0  0  0  0  0  0  0  0  0
   -5.8190    1.0874    0.6704 C   0  0  0  0  0  0  0  0  0  0  0  0
   -2.5056    1.1768   -1.1728 C   0  0  0  0  0  0  0  0  0  0  0  0
   -2.9507   -1.2686    0.8953 C   0  0  0  0  0  0  0  0  0  0  0  0
   -2.1638    2.6214   -1.3875 C   0  0  0  0  0  0  0  0  0  0  0  0
   -2.3975   -2.3898    0.4103 C   0  0  0  0  0  0  0  0  0  0  0  0
   -1.3816   -3.2081    1.1584 C   0  0  2  0  0  0  0  0  0  0  0  0
   -1.1481    3.2466   -0.7741 C   0  0  0  0  0  0  0  0  0  0  0  0
   -0.0863   -3.3426    0.3445 C   0  0  0  0  0  0  0  0  0  0  0  0
   -0.2261    2.5783    0.2046 C   0  0  0  0  0  0  0  0  0  0  0  0
    0.7884   -2.0798    0.3518 C   0  0  0  0  0  0  0  0  0  0  0  0
    1.2282    2.6422   -0.2735 C   0  0  0  0  0  0  0  0  0  0  0  0
    2.0148   -2.1843   -0.5192 C   0  0  0  0  0  0  0  0  0  0  0  0
    2.1803    1.9009    0.6645 C   0  0  0  0  0  0  0  0  0  0  0  0
    3.2085   -2.6724    0.0126 C   0  0  0  0  0  0  0  0  0  0  0  0
    1.9558   -1.7933   -1.8570 C   0  0  0  0  0  0  0  0  0  0  0  0
    3.6215    1.8788    0.1814 C   0  0  0  0  0  0  0  0  0  0  0  0
    4.3430   -2.7691   -0.7931 C   0  0  0  0  0  0  0  0  0  0  0  0
    3.0905   -1.8903   -2.6626 C   0  0  0  0  0  0  0  0  0  0  0  0
    4.2840   -2.3783   -2.1307 C   0  0  0  0  0  0  0  0  0  0  0  0
    5.8592    1.0043    0.8399 C   0  0  0  0  0  0  0  0  0  0  0  0
    6.6526    2.2402    1.2108 C   0  0  0  0  0  0  0  0  0  0  0  0
   -3.1276    1.4095    0.8768 H   0  0  0  0  0  0  0  0  0  0  0  0
   -4.1631   -0.9202   -0.8190 H   0  0  0  0  0  0  0  0  0  0  0  0
   -4.7995    2.7876   -0.2262 H   0  0  0  0  0  0  0  0  0  0  0  0
   -5.1667   -0.5009    2.0045 H   0  0  0  0  0  0  0  0  0  0  0  0
   -5.7497    1.6587    1.6040 H   0  0  0  0  0  0  0  0  0  0  0  0
   -6.8605    1.0956    0.3332 H   0  0  0  0  0  0  0  0  0  0  0  0
   -2.8937    0.7822   -2.1211 H   0  0  0  0  0  0  0  0  0  0  0  0
   -1.6156    0.5698   -0.9791 H   0  0  0  0  0  0  0  0  0  0  0  0
   -2.6524   -0.9157    1.8800 H   0  0  0  0  0  0  0  0  0  0  0  0
   -6.2015    1.8853   -1.7644 H   0  0  0  0  0  0  0  0  0  0  0  0
   -7.0524   -1.1627    0.9410 H   0  0  0  0  0  0  0  0  0  0  0  0
   -2.7887    3.1891   -2.0718 H   0  0  0  0  0  0  0  0  0  0  0  0
   -2.6955   -2.7479   -0.5725 H   0  0  0  0  0  0  0  0  0  0  0  0
   -1.1622   -2.7767    2.1412 H   0  0  0  0  0  0  0  0  0  0  0  0
   -0.9822    4.3007   -0.9811 H   0  0  0  0  0  0  0  0  0  0  0  0
    0.4992   -4.1801    0.7485 H   0  0  0  0  0  0  0  0  0  0  0  0
   -0.3192   -3.6363   -0.6885 H   0  0  0  0  0  0  0  0  0  0  0  0
   -0.4935    1.5429    0.4269 H   0  0  0  0  0  0  0  0  0  0  0  0
   -0.3075    3.1146    1.1585 H   0  0  0  0  0  0  0  0  0  0  0  0
    0.2001   -1.2134    0.0235 H   0  0  0  0  0  0  0  0  0  0  0  0
    1.0933   -1.8506    1.3813 H   0  0  0  0  0  0  0  0  0  0  0  0
    1.3019    2.2033   -1.2774 H   0  0  0  0  0  0  0  0  0  0  0  0
    1.5474    3.6882   -0.3677 H   0  0  0  0  0  0  0  0  0  0  0  0
   -2.0561   -4.9369    0.5262 H   0  0  0  0  0  0  0  0  0  0  0  0
    2.1593    2.3701    1.6555 H   0  0  0  0  0  0  0  0  0  0  0  0
    1.8503    0.8620    0.7817 H   0  0  0  0  0  0  0  0  0  0  0  0
    3.2666   -2.9808    1.0530 H   0  0  0  0  0  0  0  0  0  0  0  0
    1.0313   -1.4120   -2.2827 H   0  0  0  0  0  0  0  0  0  0  0  0
    5.2726   -3.1482   -0.3788 H   0  0  0  0  0  0  0  0  0  0  0  0
    3.0448   -1.5856   -3.7041 H   0  0  0  0  0  0  0  0  0  0  0  0
    4.0452    0.8088    1.9151 H   0  0  0  0  0  0  0  0  0  0  0  0
    5.1675   -2.4530   -2.7577 H   0  0  0  0  0  0  0  0  0  0  0  0
    6.0176    0.7574   -0.2153 H   0  0  0  0  0  0  0  0  0  0  0  0
    6.1761    0.1502    1.4464 H   0  0  0  0  0  0  0  0  0  0  0  0
    6.3554    3.1017    0.6038 H   0  0  0  0  0  0  0  0  0  0  0  0
    6.4961    2.5047    2.2620 H   0  0  0  0  0  0  0  0  0  0  0  0
    7.7221    2.0674    1.0565 H   0  0  0  0  0  0  0  0  0  0  0  0
  1  8  1  0  0  0  0
  1 40  1  0  0  0  0
  2  9  1  0  0  0  0
  2 41  1  0  0  0  0
  3 15  1  0  0  0  0
  3 54  1  0  0  0  0
  4 25  2  0  0  0  0
  5 25  1  0  0  0  0
  5 29  1  0  0  0  0
  5 61  1  0  0  0  0
  6  7  1  1  0  0  0
  6 11  1  0  0  0  0
  6 31  1  0  0  0  0
  7  9  1  1  0  0  0
  7 12  1  0  0  0  0
  7 32  1  0  0  0  0
  8  6  1  1  0  0  0
  8 10  1  0  0  0  0
  8 33  1  0  0  0  0
  9 10  1  0  0  0  0
  9 34  1  1  0  0  0
 10 35  1  0  0  0  0
 10 36  1  0  0  0  0
 11 13  1  0  0  0  0
 11 37  1  0  0  0  0
 11 38  1  0  0  0  0
 12 14  2  0  0  0  0
 12 39  1  0  0  0  0
 13 16  2  0  0  0  0
 13 42  1  0  0  0  0
 14 15  1  0  0  0  0
 14 43  1  0  0  0  0
 15 17  1  0  0  0  0
 15 44  1  1  0  0  0
 16 18  1  0  0  0  0
 16 45  1  0  0  0  0
 17 19  1  0  0  0  0
 17 46  1  0  0  0  0
 17 47  1  0  0  0  0
 18 20  1  0  0  0  0
 18 48  1  0  0  0  0
 18 49  1  0  0  0  0
 19 21  1  0  0  0  0
 19 50  1  0  0  0  0
 19 51  1  0  0  0  0
 20 22  1  0  0  0  0
 20 52  1  0  0  0  0
 20 53  1  0  0  0  0
 21 23  2  0  0  0  0
 21 24  1  0  0  0  0
 22 25  1  0  0  0  0
 22 55  1  0  0  0  0
 22 56  1  0  0  0  0
 23 26  1  0  0  0  0
 23 57  1  0  0  0  0
 24 27  2  0  0  0  0
 24 58  1  0  0  0  0
 26 28  2  0  0  0  0
 26 59  1  0  0  0  0
 27 28  1  0  0  0  0
 27 60  1  0  0  0  0
 28 62  1  0  0  0  0
 29 30  1  0  0  0  0
 29 63  1  0  0  0  0
 29 64  1  0  0  0  0
 30 65  1  0  0  0  0
 30 66  1  0  0  0  0
 30 67  1  0  0  0  0
M  END
