DB00283
 OpenBabel07062211533D

 50 52  0  0  1  0  0  0  0  0999 V2000
    1.8937   -5.3841   -1.6397 Cl  0  0  0  0  0  0  0  0  0  0  0  0
    0.6356    0.8706   -0.0920 O   0  0  0  0  0  0  0  0  0  0  0  0
   -4.2456    0.8959   -0.5466 N   0  0  0  0  0  0  0  0  0  0  0  0
   -3.0555    0.1765   -0.0718 C   0  0  2  0  0  0  0  0  0  0  0  0
   -3.3037    0.0746    1.4346 C   0  0  0  0  0  0  0  0  0  0  0  0
   -4.8175    0.1532    1.5994 C   0  0  0  0  0  0  0  0  0  0  0  0
   -5.3644    0.3016    0.1893 C   0  0  0  0  0  0  0  0  0  0  0  0
   -1.7493    0.8965   -0.3820 C   0  0  0  0  0  0  0  0  0  0  0  0
   -0.5654    0.1856    0.2387 C   0  0  0  0  0  0  0  0  0  0  0  0
   -4.4424    0.7986   -1.9879 C   0  0  0  0  0  0  0  0  0  0  0  0
    1.7723    0.2325    0.4735 C   0  0  1  0  0  0  0  0  0  0  0  0
    1.8038   -1.2012   -0.0661 C   0  0  0  0  0  0  0  0  0  0  0  0
    3.0482    0.9965    0.0974 C   0  0  0  0  0  0  0  0  0  0  0  0
    1.5428    0.3526    1.9934 C   0  0  0  0  0  0  0  0  0  0  0  0
    2.3420   -2.1889    0.7245 C   0  0  0  0  0  0  0  0  0  0  0  0
    1.2919   -1.4427   -1.3192 C   0  0  0  0  0  0  0  0  0  0  0  0
    4.2562    0.5100    0.5362 C   0  0  0  0  0  0  0  0  0  0  0  0
    2.9301    2.1354   -0.6623 C   0  0  0  0  0  0  0  0  0  0  0  0
    2.3701   -3.4941    0.2337 C   0  0  0  0  0  0  0  0  0  0  0  0
    1.3200   -2.7479   -1.8103 C   0  0  0  0  0  0  0  0  0  0  0  0
    5.4166    1.2046    0.1942 C   0  0  0  0  0  0  0  0  0  0  0  0
    4.0904    2.8300   -1.0039 C   0  0  0  0  0  0  0  0  0  0  0  0
    1.8591   -3.7737   -1.0339 C   0  0  0  0  0  0  0  0  0  0  0  0
    5.3336    2.3646   -0.5759 C   0  0  0  0  0  0  0  0  0  0  0  0
   -3.0316   -0.8388   -0.4932 H   0  0  0  0  0  0  0  0  0  0  0  0
   -2.8449    0.9009    1.9914 H   0  0  0  0  0  0  0  0  0  0  0  0
   -2.9133   -0.8645    1.8417 H   0  0  0  0  0  0  0  0  0  0  0  0
   -5.2188   -0.7366    2.0948 H   0  0  0  0  0  0  0  0  0  0  0  0
   -5.0793    1.0249    2.2108 H   0  0  0  0  0  0  0  0  0  0  0  0
   -5.6321   -0.6860   -0.2084 H   0  0  0  0  0  0  0  0  0  0  0  0
   -6.2550    0.9377    0.1684 H   0  0  0  0  0  0  0  0  0  0  0  0
   -1.5934    0.9603   -1.4659 H   0  0  0  0  0  0  0  0  0  0  0  0
   -1.7787    1.9355   -0.0276 H   0  0  0  0  0  0  0  0  0  0  0  0
   -0.7300    0.2267    1.3166 H   0  0  0  0  0  0  0  0  0  0  0  0
   -0.6130   -0.8642   -0.0546 H   0  0  0  0  0  0  0  0  0  0  0  0
   -4.5016   -0.2401   -2.3327 H   0  0  0  0  0  0  0  0  0  0  0  0
   -3.6302    1.2949   -2.5283 H   0  0  0  0  0  0  0  0  0  0  0  0
   -5.3673    1.3084   -2.2799 H   0  0  0  0  0  0  0  0  0  0  0  0
    0.8263   -0.3765    2.3888 H   0  0  0  0  0  0  0  0  0  0  0  0
    1.1915    1.3554    2.2687 H   0  0  0  0  0  0  0  0  0  0  0  0
    2.4616    0.1775    2.5665 H   0  0  0  0  0  0  0  0  0  0  0  0
    2.7428   -2.0024    1.7146 H   0  0  0  0  0  0  0  0  0  0  0  0
    0.9032   -0.6607   -1.9642 H   0  0  0  0  0  0  0  0  0  0  0  0
    4.3532   -0.3783    1.1485 H   0  0  0  0  0  0  0  0  0  0  0  0
    1.9818    2.5280   -1.0123 H   0  0  0  0  0  0  0  0  0  0  0  0
    2.7923   -4.2837    0.8500 H   0  0  0  0  0  0  0  0  0  0  0  0
    0.9262   -2.9496   -2.8032 H   0  0  0  0  0  0  0  0  0  0  0  0
    6.3845    0.8446    0.5307 H   0  0  0  0  0  0  0  0  0  0  0  0
    4.0263    3.7336   -1.6032 H   0  0  0  0  0  0  0  0  0  0  0  0
    6.2370    2.9060   -0.8412 H   0  0  0  0  0  0  0  0  0  0  0  0
  1 23  1  0  0  0  0
  2  9  1  0  0  0  0
  3  4  1  0  0  0  0
  3  7  1  0  0  0  0
  3 10  1  0  0  0  0
  4  5  1  0  0  0  0
  4  8  1  0  0  0  0
  4 25  1  6  0  0  0
  5  6  1  0  0  0  0
  5 26  1  0  0  0  0
  5 27  1  0  0  0  0
  6  7  1  0  0  0  0
  6 28  1  0  0  0  0
  6 29  1  0  0  0  0
  7 30  1  0  0  0  0
  7 31  1  0  0  0  0
  8  9  1  0  0  0  0
  8 32  1  0  0  0  0
  8 33  1  0  0  0  0
  9 34  1  0  0  0  0
  9 35  1  0  0  0  0
 10 36  1  0  0  0  0
 10 37  1  0  0  0  0
 10 38  1  0  0  0  0
 11  2  1  6  0  0  0
 11 12  1  0  0  0  0
 11 13  1  0  0  0  0
 11 14  1  0  0  0  0
 12 15  2  0  0  0  0
 12 16  1  0  0  0  0
 13 17  2  0  0  0  0
 13 18  1  0  0  0  0
 14 39  1  0  0  0  0
 14 40  1  0  0  0  0
 14 41  1  0  0  0  0
 15 19  1  0  0  0  0
 15 42  1  0  0  0  0
 16 20  2  0  0  0  0
 16 43  1  0  0  0  0
 17 21  1  0  0  0  0
 17 44  1  0  0  0  0
 18 22  2  0  0  0  0
 18 45  1  0  0  0  0
 19 23  2  0  0  0  0
 19 46  1  0  0  0  0
 20 23  1  0  0  0  0
 20 47  1  0  0  0  0
 21 24  2  0  0  0  0
 21 48  1  0  0  0  0
 22 24  1  0  0  0  0
 22 49  1  0  0  0  0
 24 50  1  0  0  0  0
M  END
