DB00649
 OpenBabel07062211533D

 28 29  0  0  1  0  0  0  0  0999 V2000
   -1.4152   -1.1451   -1.0735 O   0  0  0  0  0  0  0  0  0  0  0  0
   -3.6338    1.5666   -0.0587 O   0  0  0  0  0  0  0  0  0  0  0  0
    1.8586   -3.1304   -0.6087 O   0  0  0  0  0  0  0  0  0  0  0  0
    4.3318    0.7249   -0.1972 O   0  0  0  0  0  0  0  0  0  0  0  0
    0.7443   -1.1407   -0.1168 N   0  0  0  0  0  0  0  0  0  0  0  0
    3.0799   -1.2004   -0.4000 N   0  0  0  0  0  0  0  0  0  0  0  0
   -0.5789   -1.7525   -0.0738 C   0  0  1  0  0  0  0  0  0  0  0  0
   -2.5419   -0.5287   -0.4123 C   0  0  1  0  0  0  0  0  0  0  0  0
   -1.2294   -1.4839    1.2297 C   0  0  0  0  0  0  0  0  0  0  0  0
   -2.3482   -0.7886    1.0390 C   0  0  0  0  0  0  0  0  0  0  0  0
   -2.5611    0.9520   -0.7532 C   0  0  0  0  0  0  0  0  0  0  0  0
    0.8329    0.2157    0.1198 C   0  0  0  0  0  0  0  0  0  0  0  0
    1.8783   -1.9174   -0.3902 C   0  0  0  0  0  0  0  0  0  0  0  0
    1.9844    0.8987    0.1097 C   0  0  0  0  0  0  0  0  0  0  0  0
    3.2426    0.1578   -0.1724 C   0  0  0  0  0  0  0  0  0  0  0  0
    2.0767    2.3686    0.3663 C   0  0  0  0  0  0  0  0  0  0  0  0
   -0.5271   -2.8270   -0.2752 H   0  0  0  0  0  0  0  0  0  0  0  0
   -3.4602   -1.0175   -0.7570 H   0  0  0  0  0  0  0  0  0  0  0  0
   -0.8634   -1.8154    2.1900 H   0  0  0  0  0  0  0  0  0  0  0  0
   -3.0200   -0.4746    1.8238 H   0  0  0  0  0  0  0  0  0  0  0  0
   -2.7225    1.0775   -1.8300 H   0  0  0  0  0  0  0  0  0  0  0  0
   -1.6451    1.4888   -0.5138 H   0  0  0  0  0  0  0  0  0  0  0  0
   -0.0708    0.7421    0.3715 H   0  0  0  0  0  0  0  0  0  0  0  0
    3.9229   -1.7332   -0.5953 H   0  0  0  0  0  0  0  0  0  0  0  0
    1.0944    2.8135    0.5579 H   0  0  0  0  0  0  0  0  0  0  0  0
    2.5103    2.8812   -0.4984 H   0  0  0  0  0  0  0  0  0  0  0  0
    2.7069    2.5653    1.2398 H   0  0  0  0  0  0  0  0  0  0  0  0
   -3.6462    2.5028   -0.3211 H   0  0  0  0  0  0  0  0  0  0  0  0
  1  7  1  0  0  0  0
  1  8  1  0  0  0  0
  2 11  1  0  0  0  0
  2 28  1  0  0  0  0
  3 13  2  0  0  0  0
  4 15  2  0  0  0  0
  5  7  1  0  0  0  0
  5 12  1  0  0  0  0
  5 13  1  0  0  0  0
  6 13  1  0  0  0  0
  6 15  1  0  0  0  0
  6 24  1  0  0  0  0
  7  9  1  0  0  0  0
  7 17  1  6  0  0  0
  8 10  1  0  0  0  0
  8 11  1  0  0  0  0
  8 18  1  6  0  0  0
  9 10  2  0  0  0  0
  9 19  1  0  0  0  0
 10 20  1  0  0  0  0
 11 21  1  0  0  0  0
 11 22  1  0  0  0  0
 12 14  2  0  0  0  0
 12 23  1  0  0  0  0
 14 15  1  0  0  0  0
 14 16  1  0  0  0  0
 16 25  1  0  0  0  0
 16 26  1  0  0  0  0
 16 27  1  0  0  0  0
M  END
