DB00333
 OpenBabel07062211533D

 50 51  0  0  1  0  0  0  0  0999 V2000
   -1.1567    0.6079   -2.5013 O   0  0  0  0  0  0  0  0  0  0  0  0
    2.5013    0.1550    0.1852 N   0  0  0  0  0  0  0  0  0  0  0  0
   -0.6506    0.0023   -0.1689 C   0  0  0  0  0  0  0  0  0  0  0  0
    0.1962    0.7211    0.9492 C   0  0  0  0  0  0  0  0  0  0  0  0
    1.6013    1.2476    0.5584 C   0  0  1  0  0  0  0  0  0  0  0  0
   -2.0781   -0.3956    0.3263 C   0  0  0  0  0  0  0  0  0  0  0  0
    0.1323   -1.2711   -0.5972 C   0  0  0  0  0  0  0  0  0  0  0  0
   -0.9305    1.0018   -1.3537 C   0  0  0  0  0  0  0  0  0  0  0  0
    2.2287    2.0093    1.7294 C   0  0  0  0  0  0  0  0  0  0  0  0
   -1.0447    2.4905   -1.0250 C   0  0  0  0  0  0  0  0  0  0  0  0
   -2.8927   -1.0339   -0.5576 C   0  0  0  0  0  0  0  0  0  0  0  0
   -0.1632   -2.4411    0.0394 C   0  0  0  0  0  0  0  0  0  0  0  0
   -2.4087   -0.0762    1.6071 C   0  0  0  0  0  0  0  0  0  0  0  0
    1.0664   -1.1396   -1.5827 C   0  0  0  0  0  0  0  0  0  0  0  0
    2.6947   -0.7539    1.3138 C   0  0  0  0  0  0  0  0  0  0  0  0
    3.7850    0.6853   -0.2713 C   0  0  0  0  0  0  0  0  0  0  0  0
   -1.9693    3.2285   -1.9796 C   0  0  0  0  0  0  0  0  0  0  0  0
   -4.1673   -1.3887   -0.1157 C   0  0  0  0  0  0  0  0  0  0  0  0
    0.5395   -3.5834   -0.3445 C   0  0  0  0  0  0  0  0  0  0  0  0
   -3.6833   -0.4310    2.0489 C   0  0  0  0  0  0  0  0  0  0  0  0
    1.7689   -2.2818   -1.9667 C   0  0  0  0  0  0  0  0  0  0  0  0
   -4.5625   -1.0873    1.1876 C   0  0  0  0  0  0  0  0  0  0  0  0
    1.5055   -3.5037   -1.3475 C   0  0  0  0  0  0  0  0  0  0  0  0
    0.2748    0.0740    1.8310 H   0  0  0  0  0  0  0  0  0  0  0  0
   -0.3442    1.5987    1.3241 H   0  0  0  0  0  0  0  0  0  0  0  0
    1.5167    1.9312   -0.2879 H   0  0  0  0  0  0  0  0  0  0  0  0
    2.2753    1.4355    2.6600 H   0  0  0  0  0  0  0  0  0  0  0  0
    3.2141    2.4311    1.5164 H   0  0  0  0  0  0  0  0  0  0  0  0
    1.5947    2.8767    1.9572 H   0  0  0  0  0  0  0  0  0  0  0  0
   -1.4744    2.6158   -0.0287 H   0  0  0  0  0  0  0  0  0  0  0  0
   -0.0601    2.9570   -1.0619 H   0  0  0  0  0  0  0  0  0  0  0  0
   -2.6021   -1.2870   -1.5707 H   0  0  0  0  0  0  0  0  0  0  0  0
   -0.8725   -2.5391    0.8524 H   0  0  0  0  0  0  0  0  0  0  0  0
   -1.7784    0.4275    2.3255 H   0  0  0  0  0  0  0  0  0  0  0  0
    1.2748   -0.2090   -2.0996 H   0  0  0  0  0  0  0  0  0  0  0  0
    1.7872   -1.1951    1.7270 H   0  0  0  0  0  0  0  0  0  0  0  0
    3.2770   -0.3265    2.1373 H   0  0  0  0  0  0  0  0  0  0  0  0
    3.2790   -1.6150    0.9628 H   0  0  0  0  0  0  0  0  0  0  0  0
    4.4270    1.0717    0.5267 H   0  0  0  0  0  0  0  0  0  0  0  0
    3.6511    1.4646   -1.0302 H   0  0  0  0  0  0  0  0  0  0  0  0
    4.3479   -0.1184   -0.7614 H   0  0  0  0  0  0  0  0  0  0  0  0
   -1.5806    3.2023   -3.0030 H   0  0  0  0  0  0  0  0  0  0  0  0
   -2.0699    4.2765   -1.6810 H   0  0  0  0  0  0  0  0  0  0  0  0
   -2.9663    2.7754   -1.9883 H   0  0  0  0  0  0  0  0  0  0  0  0
   -4.8511   -1.9019   -0.7854 H   0  0  0  0  0  0  0  0  0  0  0  0
    0.3422   -4.5329    0.1445 H   0  0  0  0  0  0  0  0  0  0  0  0
   -3.9920   -0.1975    3.0638 H   0  0  0  0  0  0  0  0  0  0  0  0
    2.5181   -2.2208   -2.7505 H   0  0  0  0  0  0  0  0  0  0  0  0
   -5.5545   -1.3643    1.5319 H   0  0  0  0  0  0  0  0  0  0  0  0
    2.0537   -4.3926   -1.6453 H   0  0  0  0  0  0  0  0  0  0  0  0
  1  8  2  0  0  0  0
  2  5  1  0  0  0  0
  2 15  1  0  0  0  0
  2 16  1  0  0  0  0
  3  4  1  0  0  0  0
  3  6  1  0  0  0  0
  3  7  1  0  0  0  0
  3  8  1  0  0  0  0
  4  5  1  0  0  0  0
  4 24  1  0  0  0  0
  4 25  1  0  0  0  0
  5  9  1  0  0  0  0
  5 26  1  6  0  0  0
  6 11  2  0  0  0  0
  6 13  1  0  0  0  0
  7 12  2  0  0  0  0
  7 14  1  0  0  0  0
  8 10  1  0  0  0  0
  9 27  1  0  0  0  0
  9 28  1  0  0  0  0
  9 29  1  0  0  0  0
 10 17  1  0  0  0  0
 10 30  1  0  0  0  0
 10 31  1  0  0  0  0
 11 18  1  0  0  0  0
 11 32  1  0  0  0  0
 12 19  1  0  0  0  0
 12 33  1  0  0  0  0
 13 20  2  0  0  0  0
 13 34  1  0  0  0  0
 14 21  2  0  0  0  0
 14 35  1  0  0  0  0
 15 36  1  0  0  0  0
 15 37  1  0  0  0  0
 15 38  1  0  0  0  0
 16 39  1  0  0  0  0
 16 40  1  0  0  0  0
 16 41  1  0  0  0  0
 17 42  1  0  0  0  0
 17 43  1  0  0  0  0
 17 44  1  0  0  0  0
 18 22  2  0  0  0  0
 18 45  1  0  0  0  0
 19 23  2  0  0  0  0
 19 46  1  0  0  0  0
 20 22  1  0  0  0  0
 20 47  1  0  0  0  0
 21 23  1  0  0  0  0
 21 48  1  0  0  0  0
 22 49  1  0  0  0  0
 23 50  1  0  0  0  0
M  END
