DB00982
 OpenBabel07062211533D

 50 50  0  0  0  0  0  0  0  0999 V2000
    6.7157   -2.1628    1.8960 O   0  0  0  0  0  0  0  0  0  0  0  0
    6.6474   -3.0103   -0.2173 O   0  0  0  0  0  0  0  0  0  0  0  0
   -3.9161    0.7068    0.5360 C   0  0  0  0  0  0  0  0  0  0  0  0
   -5.1119   -0.2036    0.9286 C   0  0  0  0  0  0  0  0  0  0  0  0
   -5.4786   -1.1786   -0.1757 C   0  0  0  0  0  0  0  0  0  0  0  0
   -2.7827   -0.1018   -0.1380 C   0  0  0  0  0  0  0  0  0  0  0  0
   -4.2968   -2.0856   -0.4837 C   0  0  0  0  0  0  0  0  0  0  0  0
   -2.9612   -1.3751   -0.5715 C   0  0  0  0  0  0  0  0  0  0  0  0
   -3.4478    1.3845    1.8471 C   0  0  0  0  0  0  0  0  0  0  0  0
   -4.4158    1.8034   -0.4325 C   0  0  0  0  0  0  0  0  0  0  0  0
   -1.5203    0.6005   -0.2991 C   0  0  0  0  0  0  0  0  0  0  0  0
   -1.8988   -2.2548   -1.1896 C   0  0  0  0  0  0  0  0  0  0  0  0
   -0.3251    0.0134   -0.1244 C   0  0  0  0  0  0  0  0  0  0  0  0
    0.9829    0.6534   -0.2672 C   0  0  0  0  0  0  0  0  0  0  0  0
    1.0034    2.1164   -0.6470 C   0  0  0  0  0  0  0  0  0  0  0  0
    2.1617    0.0206   -0.0808 C   0  0  0  0  0  0  0  0  0  0  0  0
    3.5052    0.5590   -0.1966 C   0  0  0  0  0  0  0  0  0  0  0  0
    4.6035   -0.1863    0.0177 C   0  0  0  0  0  0  0  0  0  0  0  0
    5.9995    0.2588   -0.0669 C   0  0  0  0  0  0  0  0  0  0  0  0
    6.2439    1.6944   -0.4556 C   0  0  0  0  0  0  0  0  0  0  0  0
    6.9663   -0.6465    0.1857 C   0  0  0  0  0  0  0  0  0  0  0  0
    6.7529   -2.0664    0.5451 C   0  0  0  0  0  0  0  0  0  0  0  0
   -5.9893    0.4038    1.1847 H   0  0  0  0  0  0  0  0  0  0  0  0
   -4.8650   -0.7790    1.8319 H   0  0  0  0  0  0  0  0  0  0  0  0
   -5.7846   -0.6381   -1.0788 H   0  0  0  0  0  0  0  0  0  0  0  0
   -6.3377   -1.7866    0.1304 H   0  0  0  0  0  0  0  0  0  0  0  0
   -4.5135   -2.6012   -1.4273 H   0  0  0  0  0  0  0  0  0  0  0  0
   -4.2210   -2.8590    0.2915 H   0  0  0  0  0  0  0  0  0  0  0  0
   -3.0252    0.6510    2.5437 H   0  0  0  0  0  0  0  0  0  0  0  0
   -2.6834    2.1480    1.6640 H   0  0  0  0  0  0  0  0  0  0  0  0
   -4.2836    1.8829    2.3524 H   0  0  0  0  0  0  0  0  0  0  0  0
   -5.2985    2.3128   -0.0286 H   0  0  0  0  0  0  0  0  0  0  0  0
   -3.6574    2.5749   -0.6046 H   0  0  0  0  0  0  0  0  0  0  0  0
   -4.6893    1.3899   -1.4094 H   0  0  0  0  0  0  0  0  0  0  0  0
   -1.5881    1.6398   -0.6021 H   0  0  0  0  0  0  0  0  0  0  0  0
   -2.3512   -2.9638   -1.8937 H   0  0  0  0  0  0  0  0  0  0  0  0
   -1.3925   -2.8481   -0.4221 H   0  0  0  0  0  0  0  0  0  0  0  0
   -1.1722   -1.7038   -1.7917 H   0  0  0  0  0  0  0  0  0  0  0  0
   -0.2616   -1.0096    0.2361 H   0  0  0  0  0  0  0  0  0  0  0  0
    0.4529    2.7035    0.0981 H   0  0  0  0  0  0  0  0  0  0  0  0
    1.9810    2.5886   -0.7294 H   0  0  0  0  0  0  0  0  0  0  0  0
    0.5181    2.2562   -1.6204 H   0  0  0  0  0  0  0  0  0  0  0  0
    2.1206   -1.0347    0.1924 H   0  0  0  0  0  0  0  0  0  0  0  0
    3.6304    1.5988   -0.4642 H   0  0  0  0  0  0  0  0  0  0  0  0
    4.4385   -1.2282    0.2861 H   0  0  0  0  0  0  0  0  0  0  0  0
    5.8050    2.3796    0.2773 H   0  0  0  0  0  0  0  0  0  0  0  0
    7.3171    1.9116   -0.4996 H   0  0  0  0  0  0  0  0  0  0  0  0
    5.8293    1.9101   -1.4459 H   0  0  0  0  0  0  0  0  0  0  0  0
    8.0102   -0.3507    0.1247 H   0  0  0  0  0  0  0  0  0  0  0  0
    6.5835   -3.0879    2.1942 H   0  0  0  0  0  0  0  0  0  0  0  0
  1 22  1  0  0  0  0
  1 50  1  0  0  0  0
  2 22  2  0  0  0  0
  3  4  1  0  0  0  0
  3  6  1  0  0  0  0
  3  9  1  0  0  0  0
  3 10  1  0  0  0  0
  4  5  1  0  0  0  0
  4 23  1  0  0  0  0
  4 24  1  0  0  0  0
  5  7  1  0  0  0  0
  5 25  1  0  0  0  0
  5 26  1  0  0  0  0
  6  8  2  0  0  0  0
  6 11  1  0  0  0  0
  7  8  1  0  0  0  0
  7 27  1  0  0  0  0
  7 28  1  0  0  0  0
  8 12  1  0  0  0  0
  9 29  1  0  0  0  0
  9 30  1  0  0  0  0
  9 31  1  0  0  0  0
 10 32  1  0  0  0  0
 10 33  1  0  0  0  0
 10 34  1  0  0  0  0
 11 13  2  0  0  0  0
 11 35  1  0  0  0  0
 12 36  1  0  0  0  0
 12 37  1  0  0  0  0
 12 38  1  0  0  0  0
 13 14  1  0  0  0  0
 13 39  1  0  0  0  0
 14 15  1  0  0  0  0
 14 16  2  0  0  0  0
 15 40  1  0  0  0  0
 15 41  1  0  0  0  0
 15 42  1  0  0  0  0
 16 17  1  0  0  0  0
 16 43  1  0  0  0  0
 17 18  2  0  0  0  0
 17 44  1  0  0  0  0
 18 19  1  0  0  0  0
 18 45  1  0  0  0  0
 19 20  1  0  0  0  0
 19 21  2  0  0  0  0
 20 46  1  0  0  0  0
 20 47  1  0  0  0  0
 20 48  1  0  0  0  0
 21 22  1  0  0  0  0
 21 49  1  0  0  0  0
M  END
