DB00946
 OpenBabel07062211533D

 37 39  0  0  1  0  0  0  0  0999 V2000
   -2.2428   -0.6497   -1.8596 O   0  0  0  0  0  0  0  0  0  0  0  0
   -0.2856    0.3800    1.6933 O   0  0  0  0  0  0  0  0  0  0  0  0
   -0.3168   -1.5195   -2.7013 O   0  0  0  0  0  0  0  0  0  0  0  0
    1.2769   -0.9564   -0.5003 C   0  0  1  0  0  0  0  0  0  0  0  0
    1.5629   -2.0134    0.5860 C   0  0  0  0  0  0  0  0  0  0  0  0
   -0.1840   -0.5951   -0.5115 C   0  0  0  0  0  0  0  0  0  0  0  0
    2.1388    0.2868   -0.3765 C   0  0  0  0  0  0  0  0  0  0  0  0
   -0.8496    0.0096    0.4911 C   0  0  0  0  0  0  0  0  0  0  0  0
   -2.2746    0.3248    0.3657 C   0  0  0  0  0  0  0  0  0  0  0  0
    0.6924   -3.2574    0.4491 C   0  0  0  0  0  0  0  0  0  0  0  0
   -0.8931   -0.9625   -1.7719 C   0  0  0  0  0  0  0  0  0  0  0  0
    1.6488    1.5209   -0.8038 C   0  0  0  0  0  0  0  0  0  0  0  0
    3.4212    0.1950    0.1644 C   0  0  0  0  0  0  0  0  0  0  0  0
   -2.9311   -0.0155   -0.8118 C   0  0  0  0  0  0  0  0  0  0  0  0
   -3.0193    0.9548    1.3722 C   0  0  0  0  0  0  0  0  0  0  0  0
    2.4411    2.6632   -0.6901 C   0  0  0  0  0  0  0  0  0  0  0  0
    4.2137    1.3373    0.2780 C   0  0  0  0  0  0  0  0  0  0  0  0
   -4.2865    0.2498   -1.0124 C   0  0  0  0  0  0  0  0  0  0  0  0
    3.7236    2.5714   -0.1493 C   0  0  0  0  0  0  0  0  0  0  0  0
   -4.3790    1.2285    1.1875 C   0  0  0  0  0  0  0  0  0  0  0  0
   -5.0116    0.8764   -0.0037 C   0  0  0  0  0  0  0  0  0  0  0  0
    1.5831   -1.4065   -1.4531 H   0  0  0  0  0  0  0  0  0  0  0  0
    1.4704   -1.6180    1.6029 H   0  0  0  0  0  0  0  0  0  0  0  0
    2.5958   -2.3693    0.4931 H   0  0  0  0  0  0  0  0  0  0  0  0
   -0.3580   -3.0496    0.6733 H   0  0  0  0  0  0  0  0  0  0  0  0
    1.0286   -4.0261    1.1531 H   0  0  0  0  0  0  0  0  0  0  0  0
    0.7584   -3.6768   -0.5600 H   0  0  0  0  0  0  0  0  0  0  0  0
    0.6750    1.6414   -1.2680 H   0  0  0  0  0  0  0  0  0  0  0  0
    3.8545   -0.7426    0.4926 H   0  0  0  0  0  0  0  0  0  0  0  0
   -2.5604    1.2444    2.3144 H   0  0  0  0  0  0  0  0  0  0  0  0
    2.0637    3.6229   -1.0311 H   0  0  0  0  0  0  0  0  0  0  0  0
    5.2142    1.2658    0.6946 H   0  0  0  0  0  0  0  0  0  0  0  0
   -4.7749   -0.0267   -1.9420 H   0  0  0  0  0  0  0  0  0  0  0  0
    4.3418    3.4603   -0.0638 H   0  0  0  0  0  0  0  0  0  0  0  0
   -4.9435    1.7176    1.9764 H   0  0  0  0  0  0  0  0  0  0  0  0
    0.6727    0.2440    1.6658 H   0  0  0  0  0  0  0  0  0  0  0  0
   -6.0669    1.0904   -0.1434 H   0  0  0  0  0  0  0  0  0  0  0  0
  1 11  1  0  0  0  0
  1 14  1  0  0  0  0
  2  8  1  0  0  0  0
  2 36  1  0  0  0  0
  3 11  2  0  0  0  0
  4  5  1  0  0  0  0
  4  6  1  0  0  0  0
  4  7  1  0  0  0  0
  4 22  1  6  0  0  0
  5 10  1  0  0  0  0
  5 23  1  0  0  0  0
  5 24  1  0  0  0  0
  6  8  2  0  0  0  0
  6 11  1  0  0  0  0
  7 12  2  0  0  0  0
  7 13  1  0  0  0  0
  8  9  1  0  0  0  0
  9 14  2  0  0  0  0
  9 15  1  0  0  0  0
 10 25  1  0  0  0  0
 10 26  1  0  0  0  0
 10 27  1  0  0  0  0
 12 16  1  0  0  0  0
 12 28  1  0  0  0  0
 13 17  2  0  0  0  0
 13 29  1  0  0  0  0
 14 18  1  0  0  0  0
 15 20  2  0  0  0  0
 15 30  1  0  0  0  0
 16 19  2  0  0  0  0
 16 31  1  0  0  0  0
 17 19  1  0  0  0  0
 17 32  1  0  0  0  0
 18 21  2  0  0  0  0
 18 33  1  0  0  0  0
 19 34  1  0  0  0  0
 20 21  1  0  0  0  0
 20 35  1  0  0  0  0
 21 37  1  0  0  0  0
M  END
