DB00751
 OpenBabel07062211533D

 34 37  0  0  1  0  0  0  0  0999 V2000
    0.4182   -1.1563   -0.2369 N   0  0  0  0  0  0  0  0  0  0  0  0
   -0.7255   -3.1414   -0.1688 N   0  0  0  0  0  0  0  0  0  0  0  0
    0.8928   -2.7341    1.5022 N   0  0  0  0  0  0  0  0  0  0  0  0
   -0.7168   -0.9064   -1.1179 C   0  0  2  0  0  0  0  0  0  0  0  0
   -1.6621    0.0392   -0.4051 C   0  0  0  0  0  0  0  0  0  0  0  0
   -1.1839   -2.3580   -1.3492 C   0  0  0  0  0  0  0  0  0  0  0  0
    1.4766   -0.2384   -0.1157 C   0  0  0  0  0  0  0  0  0  0  0  0
   -1.2364    1.3731   -0.2350 C   0  0  0  0  0  0  0  0  0  0  0  0
    0.0675    1.8380   -0.8385 C   0  0  0  0  0  0  0  0  0  0  0  0
    1.3365    1.1562   -0.3507 C   0  0  0  0  0  0  0  0  0  0  0  0
    0.2186   -2.3881    0.3651 C   0  0  0  0  0  0  0  0  0  0  0  0
   -2.8881   -0.3547    0.1508 C   0  0  0  0  0  0  0  0  0  0  0  0
   -2.0461    2.2808    0.4656 C   0  0  0  0  0  0  0  0  0  0  0  0
    2.7664   -0.7042    0.2323 C   0  0  0  0  0  0  0  0  0  0  0  0
    2.4611    2.0023   -0.2057 C   0  0  0  0  0  0  0  0  0  0  0  0
   -3.6848    0.5579    0.8450 C   0  0  0  0  0  0  0  0  0  0  0  0
   -3.2649    1.8739    1.0023 C   0  0  0  0  0  0  0  0  0  0  0  0
    3.8608    0.1502    0.3803 C   0  0  0  0  0  0  0  0  0  0  0  0
    3.7064    1.5083    0.1673 C   0  0  0  0  0  0  0  0  0  0  0  0
   -0.4292   -0.4948   -2.0937 H   0  0  0  0  0  0  0  0  0  0  0  0
   -2.2606   -2.4639   -1.5034 H   0  0  0  0  0  0  0  0  0  0  0  0
   -0.6869   -2.7780   -2.2333 H   0  0  0  0  0  0  0  0  0  0  0  0
    0.0145    1.7383   -1.9308 H   0  0  0  0  0  0  0  0  0  0  0  0
    0.1539    2.9185   -0.6589 H   0  0  0  0  0  0  0  0  0  0  0  0
   -3.2442   -1.3769    0.0726 H   0  0  0  0  0  0  0  0  0  0  0  0
   -1.7327    3.3136    0.5959 H   0  0  0  0  0  0  0  0  0  0  0  0
    2.9561   -1.7672    0.3635 H   0  0  0  0  0  0  0  0  0  0  0  0
    2.3702    3.0704   -0.3951 H   0  0  0  0  0  0  0  0  0  0  0  0
   -4.6317    0.2363    1.2693 H   0  0  0  0  0  0  0  0  0  0  0  0
   -3.8849    2.5825    1.5436 H   0  0  0  0  0  0  0  0  0  0  0  0
    4.8324   -0.2540    0.6490 H   0  0  0  0  0  0  0  0  0  0  0  0
    4.5525    2.1801    0.2719 H   0  0  0  0  0  0  0  0  0  0  0  0
    0.7225   -3.6275    1.9515 H   0  0  0  0  0  0  0  0  0  0  0  0
    1.4719   -2.0759    2.0105 H   0  0  0  0  0  0  0  0  0  0  0  0
  1  4  1  0  0  0  0
  1  7  1  0  0  0  0
  1 11  1  0  0  0  0
  2  6  1  0  0  0  0
  2 11  2  0  0  0  0
  3 11  1  0  0  0  0
  3 33  1  0  0  0  0
  3 34  1  0  0  0  0
  4  5  1  0  0  0  0
  4  6  1  0  0  0  0
  4 20  1  6  0  0  0
  5  8  2  0  0  0  0
  5 12  1  0  0  0  0
  6 21  1  0  0  0  0
  6 22  1  0  0  0  0
  7 10  2  0  0  0  0
  7 14  1  0  0  0  0
  8  9  1  0  0  0  0
  8 13  1  0  0  0  0
  9 10  1  0  0  0  0
  9 23  1  0  0  0  0
  9 24  1  0  0  0  0
 10 15  1  0  0  0  0
 12 16  2  0  0  0  0
 12 25  1  0  0  0  0
 13 17  2  0  0  0  0
 13 26  1  0  0  0  0
 14 18  2  0  0  0  0
 14 27  1  0  0  0  0
 15 19  2  0  0  0  0
 15 28  1  0  0  0  0
 16 17  1  0  0  0  0
 16 29  1  0  0  0  0
 17 30  1  0  0  0  0
 18 19  1  0  0  0  0
 18 31  1  0  0  0  0
 19 32  1  0  0  0  0
M  END
