DB00888
 OpenBabel07062211533D

 19 18  0  0  0  0  0  0  0  0999 V2000
    3.9136   -0.8722   -0.1804 Cl  0  0  0  0  0  0  0  0  0  0  0  0
   -3.9061   -0.9054   -0.1410 Cl  0  0  0  0  0  0  0  0  0  0  0  0
    0.0024   -0.0326    0.2898 N   0  0  0  0  0  0  0  0  0  0  0  0
    1.2044   -0.7376   -0.1536 C   0  0  0  0  0  0  0  0  0  0  0  0
   -1.1981   -0.7504   -0.1376 C   0  0  0  0  0  0  0  0  0  0  0  0
   -0.0084    1.3351   -0.2281 C   0  0  0  0  0  0  0  0  0  0  0  0
    2.4450   -0.0312    0.3710 C   0  0  0  0  0  0  0  0  0  0  0  0
   -2.4407   -0.0275    0.3586 C   0  0  0  0  0  0  0  0  0  0  0  0
    1.2397   -0.8056   -1.2491 H   0  0  0  0  0  0  0  0  0  0  0  0
    1.1930   -1.7637    0.2359 H   0  0  0  0  0  0  0  0  0  0  0  0
   -1.1862   -1.7644    0.2820 H   0  0  0  0  0  0  0  0  0  0  0  0
   -1.2301   -0.8498   -1.2309 H   0  0  0  0  0  0  0  0  0  0  0  0
   -0.8471    1.9216    0.1567 H   0  0  0  0  0  0  0  0  0  0  0  0
   -0.0351    1.3659   -1.3236 H   0  0  0  0  0  0  0  0  0  0  0  0
    0.8469    1.9246    0.1115 H   0  0  0  0  0  0  0  0  0  0  0  0
    2.5684    0.9844   -0.0051 H   0  0  0  0  0  0  0  0  0  0  0  0
    2.4646   -0.0086    1.4651 H   0  0  0  0  0  0  0  0  0  0  0  0
   -2.4557    0.0511    1.4502 H   0  0  0  0  0  0  0  0  0  0  0  0
   -2.5706    0.9663   -0.0714 H   0  0  0  0  0  0  0  0  0  0  0  0
  1  7  1  0  0  0  0
  2  8  1  0  0  0  0
  3  4  1  0  0  0  0
  3  5  1  0  0  0  0
  3  6  1  0  0  0  0
  4  7  1  0  0  0  0
  4  9  1  0  0  0  0
  4 10  1  0  0  0  0
  5  8  1  0  0  0  0
  5 11  1  0  0  0  0
  5 12  1  0  0  0  0
  6 13  1  0  0  0  0
  6 14  1  0  0  0  0
  6 15  1  0  0  0  0
  7 16  1  0  0  0  0
  7 17  1  0  0  0  0
  8 18  1  0  0  0  0
  8 19  1  0  0  0  0
M  END
