DB00561
 OpenBabel07062211533D

 58 61  0  0  1  0  0  0  0  0999 V2000
    3.7890    0.9764    0.8812 O   0  0  0  0  0  0  0  0  0  0  0  0
   -5.9639   -0.1361   -0.6763 O   0  0  0  0  0  0  0  0  0  0  0  0
    1.7069    1.9386    1.3184 N   0  0  0  0  0  0  0  0  0  0  0  0
   -3.3899   -0.4797    0.4894 N   0  0  0  0  0  0  0  0  0  0  0  0
    0.3266    0.1234    0.9455 C   0  0  1  0  0  0  0  0  0  0  0  0
    1.6987   -0.1980    0.2320 C   0  0  0  0  0  0  0  0  0  0  0  0
    0.3187    1.6401    1.0898 C   0  0  0  0  0  0  0  0  0  0  0  0
   -0.9585   -0.3827    0.3009 C   0  0  0  0  0  0  0  0  0  0  0  0
    2.5652    0.9409    0.8536 C   0  0  0  0  0  0  0  0  0  0  0  0
    1.5926   -0.0449   -1.3066 C   0  0  0  0  0  0  0  0  0  0  0  0
    2.3318   -1.5583    0.6098 C   0  0  0  0  0  0  0  0  0  0  0  0
   -2.1734    0.0312    1.1178 C   0  0  0  0  0  0  0  0  0  0  0  0
    2.1236    3.2187    1.8502 C   0  0  0  0  0  0  0  0  0  0  0  0
    1.4269   -1.1729   -2.1115 C   0  0  0  0  0  0  0  0  0  0  0  0
    3.6160   -1.8702    0.1711 C   0  0  0  0  0  0  0  0  0  0  0  0
    1.6631    1.2213   -1.8895 C   0  0  0  0  0  0  0  0  0  0  0  0
    1.6142   -2.4644    1.3862 C   0  0  0  0  0  0  0  0  0  0  0  0
   -3.5540    0.0785   -0.8601 C   0  0  0  0  0  0  0  0  0  0  0  0
   -4.5699   -0.1705    1.3089 C   0  0  0  0  0  0  0  0  0  0  0  0
    2.2283    4.2650    0.7601 C   0  0  0  0  0  0  0  0  0  0  0  0
   -4.8358   -0.4585   -1.4906 C   0  0  0  0  0  0  0  0  0  0  0  0
   -5.8272   -0.7028    0.6273 C   0  0  0  0  0  0  0  0  0  0  0  0
    1.3315   -1.0351   -3.4963 C   0  0  0  0  0  0  0  0  0  0  0  0
    4.1865   -3.0967    0.5114 C   0  0  0  0  0  0  0  0  0  0  0  0
    1.5676    1.3591   -3.2743 C   0  0  0  0  0  0  0  0  0  0  0  0
    2.1848   -3.6908    1.7268 C   0  0  0  0  0  0  0  0  0  0  0  0
    1.4018    0.2310   -4.0778 C   0  0  0  0  0  0  0  0  0  0  0  0
    3.4711   -4.0069    1.2895 C   0  0  0  0  0  0  0  0  0  0  0  0
    0.3676   -0.2509    1.9790 H   0  0  0  0  0  0  0  0  0  0  0  0
   -0.0295    2.1697    0.1982 H   0  0  0  0  0  0  0  0  0  0  0  0
   -0.2643    1.9662    1.9571 H   0  0  0  0  0  0  0  0  0  0  0  0
   -0.9288   -1.4725    0.1900 H   0  0  0  0  0  0  0  0  0  0  0  0
   -1.0003    0.0446   -0.7034 H   0  0  0  0  0  0  0  0  0  0  0  0
   -2.0793   -0.3883    2.1274 H   0  0  0  0  0  0  0  0  0  0  0  0
   -2.2367    1.1208    1.2197 H   0  0  0  0  0  0  0  0  0  0  0  0
    1.4162    3.5280    2.6265 H   0  0  0  0  0  0  0  0  0  0  0  0
    3.1063    3.0938    2.3180 H   0  0  0  0  0  0  0  0  0  0  0  0
    1.3346   -2.1725   -1.6980 H   0  0  0  0  0  0  0  0  0  0  0  0
    4.1890   -1.1851   -0.4474 H   0  0  0  0  0  0  0  0  0  0  0  0
    1.7994    2.1276   -1.3133 H   0  0  0  0  0  0  0  0  0  0  0  0
    0.6072   -2.2850    1.7410 H   0  0  0  0  0  0  0  0  0  0  0  0
   -3.5939    1.1747   -0.8221 H   0  0  0  0  0  0  0  0  0  0  0  0
   -2.7512   -0.2174   -1.5395 H   0  0  0  0  0  0  0  0  0  0  0  0
   -4.6631    0.9144    1.4485 H   0  0  0  0  0  0  0  0  0  0  0  0
   -4.4789   -0.6341    2.2978 H   0  0  0  0  0  0  0  0  0  0  0  0
    2.5474    5.2231    1.1817 H   0  0  0  0  0  0  0  0  0  0  0  0
    1.2653    4.4160    0.2614 H   0  0  0  0  0  0  0  0  0  0  0  0
    2.9569    3.9696   -0.0020 H   0  0  0  0  0  0  0  0  0  0  0  0
   -4.7906   -1.5445   -1.6393 H   0  0  0  0  0  0  0  0  0  0  0  0
   -4.9917    0.0033   -2.4710 H   0  0  0  0  0  0  0  0  0  0  0  0
   -6.7125   -0.4217    1.2067 H   0  0  0  0  0  0  0  0  0  0  0  0
   -5.8143   -1.7969    0.5516 H   0  0  0  0  0  0  0  0  0  0  0  0
    1.1951   -1.9125   -4.1217 H   0  0  0  0  0  0  0  0  0  0  0  0
    5.1865   -3.3446    0.1678 H   0  0  0  0  0  0  0  0  0  0  0  0
    1.6238    2.3445   -3.7277 H   0  0  0  0  0  0  0  0  0  0  0  0
    1.6267   -4.4020    2.3289 H   0  0  0  0  0  0  0  0  0  0  0  0
    1.3259    0.3384   -5.1558 H   0  0  0  0  0  0  0  0  0  0  0  0
    3.9147   -4.9625    1.5530 H   0  0  0  0  0  0  0  0  0  0  0  0
  1  9  2  0  0  0  0
  2 21  1  0  0  0  0
  2 22  1  0  0  0  0
  3  7  1  0  0  0  0
  3  9  1  0  0  0  0
  3 13  1  0  0  0  0
  4 12  1  0  0  0  0
  4 18  1  0  0  0  0
  4 19  1  0  0  0  0
  5  6  1  0  0  0  0
  5  7  1  0  0  0  0
  5  8  1  0  0  0  0
  5 29  1  1  0  0  0
  6  9  1  0  0  0  0
  6 10  1  0  0  0  0
  6 11  1  0  0  0  0
  7 30  1  0  0  0  0
  7 31  1  0  0  0  0
  8 12  1  0  0  0  0
  8 32  1  0  0  0  0
  8 33  1  0  0  0  0
 10 14  2  0  0  0  0
 10 16  1  0  0  0  0
 11 15  2  0  0  0  0
 11 17  1  0  0  0  0
 12 34  1  0  0  0  0
 12 35  1  0  0  0  0
 13 20  1  0  0  0  0
 13 36  1  0  0  0  0
 13 37  1  0  0  0  0
 14 23  1  0  0  0  0
 14 38  1  0  0  0  0
 15 24  1  0  0  0  0
 15 39  1  0  0  0  0
 16 25  2  0  0  0  0
 16 40  1  0  0  0  0
 17 26  2  0  0  0  0
 17 41  1  0  0  0  0
 18 21  1  0  0  0  0
 18 42  1  0  0  0  0
 18 43  1  0  0  0  0
 19 22  1  0  0  0  0
 19 44  1  0  0  0  0
 19 45  1  0  0  0  0
 20 46  1  0  0  0  0
 20 47  1  0  0  0  0
 20 48  1  0  0  0  0
 21 49  1  0  0  0  0
 21 50  1  0  0  0  0
 22 51  1  0  0  0  0
 22 52  1  0  0  0  0
 23 27  2  0  0  0  0
 23 53  1  0  0  0  0
 24 28  2  0  0  0  0
 24 54  1  0  0  0  0
 25 27  1  0  0  0  0
 25 55  1  0  0  0  0
 26 28  1  0  0  0  0
 26 56  1  0  0  0  0
 27 57  1  0  0  0  0
 28 58  1  0  0  0  0
M  END
