DB00340
 OpenBabel07062211533D

 45 48  0  0  1  0  0  0  0  0999 V2000
    3.1817    1.1199    1.7718 S   0  0  0  0  0  0  0  0  0  0  0  0
   -3.5898   -0.3376    0.7942 N   0  0  0  0  0  0  0  0  0  0  0  0
   -1.1935   -0.2425    0.1520 C   0  0  1  0  0  0  0  0  0  0  0  0
    0.1994   -0.7808    0.4739 C   0  0  0  0  0  0  0  0  0  0  0  0
   -1.5652   -0.5405   -1.3048 C   0  0  0  0  0  0  0  0  0  0  0  0
   -2.2420   -0.8339    1.1094 C   0  0  0  0  0  0  0  0  0  0  0  0
    1.2641   -0.1302   -0.4183 C   0  0  0  0  0  0  0  0  0  0  0  0
   -2.9949   -0.0951   -1.5929 C   0  0  0  0  0  0  0  0  0  0  0  0
   -3.9760   -0.6850   -0.5798 C   0  0  0  0  0  0  0  0  0  0  0  0
    1.2588    1.3783   -0.2386 C   0  0  0  0  0  0  0  0  0  0  0  0
    2.6171   -0.7832   -0.1943 C   0  0  0  0  0  0  0  0  0  0  0  0
   -4.5656   -0.8648    1.7483 C   0  0  0  0  0  0  0  0  0  0  0  0
    2.0591    2.0214    0.7201 C   0  0  0  0  0  0  0  0  0  0  0  0
    3.5257   -0.3129    0.7682 C   0  0  0  0  0  0  0  0  0  0  0  0
    0.3910    2.1529   -1.0291 C   0  0  0  0  0  0  0  0  0  0  0  0
    2.9533   -1.9235   -0.9455 C   0  0  0  0  0  0  0  0  0  0  0  0
    1.9826    3.4134    0.8720 C   0  0  0  0  0  0  0  0  0  0  0  0
    4.7435   -0.9809    0.9629 C   0  0  0  0  0  0  0  0  0  0  0  0
    0.3259    3.5373   -0.8756 C   0  0  0  0  0  0  0  0  0  0  0  0
    4.1691   -2.5778   -0.7500 C   0  0  0  0  0  0  0  0  0  0  0  0
    1.1215    4.1671    0.0752 C   0  0  0  0  0  0  0  0  0  0  0  0
    5.0634   -2.1068    0.2048 C   0  0  0  0  0  0  0  0  0  0  0  0
   -1.2370    0.8373    0.3256 H   0  0  0  0  0  0  0  0  0  0  0  0
    0.2132   -1.8714    0.3433 H   0  0  0  0  0  0  0  0  0  0  0  0
    0.4231   -0.5994    1.5338 H   0  0  0  0  0  0  0  0  0  0  0  0
   -1.5051   -1.6255   -1.4704 H   0  0  0  0  0  0  0  0  0  0  0  0
   -0.9127   -0.1010   -2.0556 H   0  0  0  0  0  0  0  0  0  0  0  0
   -2.2144   -1.9314    1.0664 H   0  0  0  0  0  0  0  0  0  0  0  0
   -1.9793   -0.5444    2.1350 H   0  0  0  0  0  0  0  0  0  0  0  0
    1.0467   -0.3179   -1.4767 H   0  0  0  0  0  0  0  0  0  0  0  0
   -3.0497    1.0006   -1.5677 H   0  0  0  0  0  0  0  0  0  0  0  0
   -3.2816   -0.4066   -2.6039 H   0  0  0  0  0  0  0  0  0  0  0  0
   -4.9734   -0.2839   -0.7979 H   0  0  0  0  0  0  0  0  0  0  0  0
   -4.0279   -1.7744   -0.7081 H   0  0  0  0  0  0  0  0  0  0  0  0
   -5.5620   -0.4567    1.5449 H   0  0  0  0  0  0  0  0  0  0  0  0
   -4.3067   -0.5637    2.7695 H   0  0  0  0  0  0  0  0  0  0  0  0
   -4.6275   -1.9587    1.7161 H   0  0  0  0  0  0  0  0  0  0  0  0
   -0.2093    1.7237   -1.8189 H   0  0  0  0  0  0  0  0  0  0  0  0
    2.2616   -2.3142   -1.6885 H   0  0  0  0  0  0  0  0  0  0  0  0
    2.5942    3.9287    1.6096 H   0  0  0  0  0  0  0  0  0  0  0  0
    5.4588   -0.6322    1.7048 H   0  0  0  0  0  0  0  0  0  0  0  0
   -0.3376    4.1236   -1.5045 H   0  0  0  0  0  0  0  0  0  0  0  0
    4.4141   -3.4566   -1.3390 H   0  0  0  0  0  0  0  0  0  0  0  0
    1.0736    5.2452    0.1966 H   0  0  0  0  0  0  0  0  0  0  0  0
    6.0098   -2.6159    0.3618 H   0  0  0  0  0  0  0  0  0  0  0  0
  1 13  1  0  0  0  0
  1 14  1  0  0  0  0
  2  6  1  0  0  0  0
  2  9  1  0  0  0  0
  2 12  1  0  0  0  0
  3  4  1  0  0  0  0
  3  5  1  0  0  0  0
  3  6  1  0  0  0  0
  3 23  1  1  0  0  0
  4  7  1  0  0  0  0
  4 24  1  0  0  0  0
  4 25  1  0  0  0  0
  5  8  1  0  0  0  0
  5 26  1  0  0  0  0
  5 27  1  0  0  0  0
  6 28  1  0  0  0  0
  6 29  1  0  0  0  0
  7 10  1  0  0  0  0
  7 11  1  0  0  0  0
  7 30  1  0  0  0  0
  8  9  1  0  0  0  0
  8 31  1  0  0  0  0
  8 32  1  0  0  0  0
  9 33  1  0  0  0  0
  9 34  1  0  0  0  0
 10 13  2  0  0  0  0
 10 15  1  0  0  0  0
 11 14  2  0  0  0  0
 11 16  1  0  0  0  0
 12 35  1  0  0  0  0
 12 36  1  0  0  0  0
 12 37  1  0  0  0  0
 13 17  1  0  0  0  0
 14 18  1  0  0  0  0
 15 19  2  0  0  0  0
 15 38  1  0  0  0  0
 16 20  2  0  0  0  0
 16 39  1  0  0  0  0
 17 21  2  0  0  0  0
 17 40  1  0  0  0  0
 18 22  2  0  0  0  0
 18 41  1  0  0  0  0
 19 21  1  0  0  0  0
 19 42  1  0  0  0  0
 20 22  1  0  0  0  0
 20 43  1  0  0  0  0
 21 44  1  0  0  0  0
 22 45  1  0  0  0  0
M  END
