DB00940
 OpenBabel07062211533D

 51 53  0  0  0  0  0  0  0  0999 V2000
    0.0080    0.1064   -0.3187 O   0  0  0  0  0  0  0  0  0  0  0  0
   -5.0339   -0.0332    0.5425 O   0  0  0  0  0  0  0  0  0  0  0  0
   -1.2524   -0.0117    1.6136 O   0  0  0  0  0  0  0  0  0  0  0  0
    3.6544    0.1104    0.3456 N   0  3  0  0  0  0  0  0  0  0  0  0
    2.4111    0.1621   -0.4642 C   0  0  0  0  0  0  0  0  0  0  0  0
    3.7078   -1.1771    1.1792 C   0  0  0  0  0  0  0  0  0  0  0  0
    4.8947    0.1462   -0.5576 C   0  0  0  0  0  0  0  0  0  0  0  0
    3.7287    1.3049    1.3064 C   0  0  0  0  0  0  0  0  0  0  0  0
    1.2099    0.0936    0.4581 C   0  0  0  0  0  0  0  0  0  0  0  0
    3.6361   -2.3726    0.2547 C   0  0  0  0  0  0  0  0  0  0  0  0
    4.9072    1.4441   -1.3354 C   0  0  0  0  0  0  0  0  0  0  0  0
   -2.3219    0.0705   -0.5443 C   0  0  0  0  0  0  0  0  0  0  0  0
   -1.1518    0.0487    0.3957 C   0  0  0  0  0  0  0  0  0  0  0  0
   -3.1169   -1.2028   -0.4166 C   0  0  0  0  0  0  0  0  0  0  0  0
   -3.1643    1.2947   -0.2965 C   0  0  0  0  0  0  0  0  0  0  0  0
   -4.4056   -1.1837    0.1271 C   0  0  0  0  0  0  0  0  0  0  0  0
   -4.4506    1.1748    0.2399 C   0  0  0  0  0  0  0  0  0  0  0  0
   -2.5707   -2.4283   -0.8264 C   0  0  0  0  0  0  0  0  0  0  0  0
   -2.6656    2.5738   -0.5854 C   0  0  0  0  0  0  0  0  0  0  0  0
   -5.1307   -2.3695    0.2741 C   0  0  0  0  0  0  0  0  0  0  0  0
   -5.2205    2.3125    0.4976 C   0  0  0  0  0  0  0  0  0  0  0  0
   -3.2977   -3.6110   -0.6857 C   0  0  0  0  0  0  0  0  0  0  0  0
   -3.4371    3.7090   -0.3343 C   0  0  0  0  0  0  0  0  0  0  0  0
   -4.5762   -3.5816   -0.1332 C   0  0  0  0  0  0  0  0  0  0  0  0
   -4.7131    3.5783    0.2091 C   0  0  0  0  0  0  0  0  0  0  0  0
    2.3593    1.1183   -0.9961 H   0  0  0  0  0  0  0  0  0  0  0  0
    2.4057   -0.6160   -1.2339 H   0  0  0  0  0  0  0  0  0  0  0  0
    4.6655   -1.1723    1.7145 H   0  0  0  0  0  0  0  0  0  0  0  0
    2.9210   -1.1740    1.9376 H   0  0  0  0  0  0  0  0  0  0  0  0
    5.7853    0.0455    0.0721 H   0  0  0  0  0  0  0  0  0  0  0  0
    4.8465   -0.6794   -1.2711 H   0  0  0  0  0  0  0  0  0  0  0  0
    4.7595    1.4049    1.6608 H   0  0  0  0  0  0  0  0  0  0  0  0
    3.3985    2.2122    0.7933 H   0  0  0  0  0  0  0  0  0  0  0  0
    3.0812    1.1120    2.1672 H   0  0  0  0  0  0  0  0  0  0  0  0
    1.1801   -0.8316    1.0374 H   0  0  0  0  0  0  0  0  0  0  0  0
    1.1690    0.9506    1.1376 H   0  0  0  0  0  0  0  0  0  0  0  0
    3.6716   -3.2781    0.8739 H   0  0  0  0  0  0  0  0  0  0  0  0
    2.7026   -2.4451   -0.3077 H   0  0  0  0  0  0  0  0  0  0  0  0
    4.4825   -2.4638   -0.4288 H   0  0  0  0  0  0  0  0  0  0  0  0
    5.8205    1.4718   -1.9424 H   0  0  0  0  0  0  0  0  0  0  0  0
    4.0818    1.5341   -2.0458 H   0  0  0  0  0  0  0  0  0  0  0  0
    4.9422    2.3372   -0.7073 H   0  0  0  0  0  0  0  0  0  0  0  0
   -1.9701    0.1273   -1.5842 H   0  0  0  0  0  0  0  0  0  0  0  0
   -1.5721   -2.4682   -1.2550 H   0  0  0  0  0  0  0  0  0  0  0  0
   -1.6699    2.6925   -1.0056 H   0  0  0  0  0  0  0  0  0  0  0  0
   -6.1304   -2.3543    0.7003 H   0  0  0  0  0  0  0  0  0  0  0  0
   -6.2183    2.2186    0.9179 H   0  0  0  0  0  0  0  0  0  0  0  0
   -2.8652   -4.5548   -1.0044 H   0  0  0  0  0  0  0  0  0  0  0  0
   -3.0412    4.6948   -0.5602 H   0  0  0  0  0  0  0  0  0  0  0  0
   -5.1412   -4.5023   -0.0216 H   0  0  0  0  0  0  0  0  0  0  0  0
   -5.3130    4.4620    0.4064 H   0  0  0  0  0  0  0  0  0  0  0  0
  1  9  1  0  0  0  0
  1 13  1  0  0  0  0
  2 16  1  0  0  0  0
  2 17  1  0  0  0  0
  3 13  2  0  0  0  0
  4  5  1  0  0  0  0
  4  6  1  0  0  0  0
  4  7  1  0  0  0  0
  4  8  1  0  0  0  0
  5  9  1  0  0  0  0
  5 26  1  0  0  0  0
  5 27  1  0  0  0  0
  6 10  1  0  0  0  0
  6 28  1  0  0  0  0
  6 29  1  0  0  0  0
  7 11  1  0  0  0  0
  7 30  1  0  0  0  0
  7 31  1  0  0  0  0
  8 32  1  0  0  0  0
  8 33  1  0  0  0  0
  8 34  1  0  0  0  0
  9 35  1  0  0  0  0
  9 36  1  0  0  0  0
 10 37  1  0  0  0  0
 10 38  1  0  0  0  0
 10 39  1  0  0  0  0
 11 40  1  0  0  0  0
 11 41  1  0  0  0  0
 11 42  1  0  0  0  0
 12 13  1  0  0  0  0
 12 14  1  0  0  0  0
 12 15  1  0  0  0  0
 12 43  1  0  0  0  0
 14 16  2  0  0  0  0
 14 18  1  0  0  0  0
 15 17  2  0  0  0  0
 15 19  1  0  0  0  0
 16 20  1  0  0  0  0
 17 21  1  0  0  0  0
 18 22  2  0  0  0  0
 18 44  1  0  0  0  0
 19 23  2  0  0  0  0
 19 45  1  0  0  0  0
 20 24  2  0  0  0  0
 20 46  1  0  0  0  0
 21 25  2  0  0  0  0
 21 47  1  0  0  0  0
 22 24  1  0  0  0  0
 22 48  1  0  0  0  0
 23 25  1  0  0  0  0
 23 49  1  0  0  0  0
 24 50  1  0  0  0  0
 25 51  1  0  0  0  0
M  CHG  1   4   1
M  END
