DB00176
 OpenBabel07062211533D

 43 43  0  0  0  0  0  0  0  0999 V2000
   -6.1087   -2.7294   -0.4560 F   0  0  0  0  0  0  0  0  0  0  0  0
   -6.9269   -1.0883    0.7022 F   0  0  0  0  0  0  0  0  0  0  0  0
   -6.7002   -0.8887   -1.4512 F   0  0  0  0  0  0  0  0  0  0  0  0
    3.8618   -3.3938    0.4840 O   0  0  0  0  0  0  0  0  0  0  0  0
    0.7941    2.3792    0.1697 O   0  0  0  0  0  0  0  0  0  0  0  0
   -0.5258    1.9838   -0.0756 N   0  0  0  0  0  0  0  0  0  0  0  0
    2.6248    5.4687   -0.6198 N   0  0  0  0  0  0  0  0  0  0  0  0
    1.1027   -0.8788    0.0638 C   0  0  0  0  0  0  0  0  0  0  0  0
    0.2838   -0.0734    1.0725 C   0  0  0  0  0  0  0  0  0  0  0  0
    2.1275   -1.7666    0.7655 C   0  0  0  0  0  0  0  0  0  0  0  0
   -0.7669    0.7856    0.3713 C   0  0  0  0  0  0  0  0  0  0  0  0
   -2.1441    0.2278    0.1887 C   0  0  0  0  0  0  0  0  0  0  0  0
    2.9192   -2.6045   -0.2284 C   0  0  0  0  0  0  0  0  0  0  0  0
   -3.2452    1.0836    0.1584 C   0  0  0  0  0  0  0  0  0  0  0  0
   -2.3260   -1.1481    0.0487 C   0  0  0  0  0  0  0  0  0  0  0  0
   -4.7100   -0.8124   -0.1523 C   0  0  0  0  0  0  0  0  0  0  0  0
   -4.5282    0.5634   -0.0122 C   0  0  0  0  0  0  0  0  0  0  0  0
   -3.6089   -1.6683   -0.1219 C   0  0  0  0  0  0  0  0  0  0  0  0
   -6.0815   -1.3690   -0.3334 C   0  0  0  0  0  0  0  0  0  0  0  0
    0.9661    3.6892   -0.3480 C   0  0  0  0  0  0  0  0  0  0  0  0
    4.6227   -4.2153   -0.3915 C   0  0  0  0  0  0  0  0  0  0  0  0
    2.3968    4.1331   -0.0887 C   0  0  0  0  0  0  0  0  0  0  0  0
    0.4639   -1.4899   -0.5799 H   0  0  0  0  0  0  0  0  0  0  0  0
    1.6260   -0.1875   -0.6091 H   0  0  0  0  0  0  0  0  0  0  0  0
    0.9353    0.5598    1.6850 H   0  0  0  0  0  0  0  0  0  0  0  0
   -0.2163   -0.7477    1.7778 H   0  0  0  0  0  0  0  0  0  0  0  0
    2.8178   -1.1541    1.3589 H   0  0  0  0  0  0  0  0  0  0  0  0
    1.6268   -2.4328    1.4792 H   0  0  0  0  0  0  0  0  0  0  0  0
    3.4476   -1.9525   -0.9338 H   0  0  0  0  0  0  0  0  0  0  0  0
    2.2428   -3.2590   -0.7908 H   0  0  0  0  0  0  0  0  0  0  0  0
   -3.1287    2.1579    0.2730 H   0  0  0  0  0  0  0  0  0  0  0  0
   -1.5044   -1.8530    0.0759 H   0  0  0  0  0  0  0  0  0  0  0  0
   -5.3804    1.2377   -0.0327 H   0  0  0  0  0  0  0  0  0  0  0  0
   -3.7312   -2.7428   -0.2269 H   0  0  0  0  0  0  0  0  0  0  0  0
    0.2591    4.3689    0.1437 H   0  0  0  0  0  0  0  0  0  0  0  0
    0.7576    3.6830   -1.4251 H   0  0  0  0  0  0  0  0  0  0  0  0
    5.3295   -4.7951    0.2082 H   0  0  0  0  0  0  0  0  0  0  0  0
    5.1870   -3.6014   -1.1000 H   0  0  0  0  0  0  0  0  0  0  0  0
    3.9702   -4.9096   -0.9299 H   0  0  0  0  0  0  0  0  0  0  0  0
    3.0950    3.4265   -0.5513 H   0  0  0  0  0  0  0  0  0  0  0  0
    2.6049    4.1151    0.9873 H   0  0  0  0  0  0  0  0  0  0  0  0
    1.9986    6.1316   -0.1647 H   0  0  0  0  0  0  0  0  0  0  0  0
    3.5720    5.7671   -0.3908 H   0  0  0  0  0  0  0  0  0  0  0  0
  1 19  1  0  0  0  0
  2 19  1  0  0  0  0
  3 19  1  0  0  0  0
  4 13  1  0  0  0  0
  4 21  1  0  0  0  0
  5  6  1  0  0  0  0
  5 20  1  0  0  0  0
  6 11  2  0  0  0  0
  7 22  1  0  0  0  0
  7 42  1  0  0  0  0
  7 43  1  0  0  0  0
  8  9  1  0  0  0  0
  8 10  1  0  0  0  0
  8 23  1  0  0  0  0
  8 24  1  0  0  0  0
  9 11  1  0  0  0  0
  9 25  1  0  0  0  0
  9 26  1  0  0  0  0
 10 13  1  0  0  0  0
 10 27  1  0  0  0  0
 10 28  1  0  0  0  0
 11 12  1  0  0  0  0
 12 14  2  0  0  0  0
 12 15  1  0  0  0  0
 13 29  1  0  0  0  0
 13 30  1  0  0  0  0
 14 17  1  0  0  0  0
 14 31  1  0  0  0  0
 15 18  2  0  0  0  0
 15 32  1  0  0  0  0
 16 17  2  0  0  0  0
 16 18  1  0  0  0  0
 16 19  1  0  0  0  0
 17 33  1  0  0  0  0
 18 34  1  0  0  0  0
 20 22  1  0  0  0  0
 20 35  1  0  0  0  0
 20 36  1  0  0  0  0
 21 37  1  0  0  0  0
 21 38  1  0  0  0  0
 21 39  1  0  0  0  0
 22 40  1  0  0  0  0
 22 41  1  0  0  0  0
M  END
