DB00809
 OpenBabel07062211533D

 41 42  0  0  1  0  0  0  0  0999 V2000
    0.6291   -2.1649    1.5291 O   0  0  0  0  0  0  0  0  0  0  0  0
    1.9119   -3.5218   -0.8660 O   0  0  0  0  0  0  0  0  0  0  0  0
   -0.9534   -1.0991    0.2218 N   0  0  0  0  0  0  0  0  0  0  0  0
   -3.1361    3.4169    0.1252 N   0  0  0  0  0  0  0  0  0  0  0  0
    1.4599   -1.1614   -0.4929 C   0  0  1  0  0  0  0  0  0  0  0  0
    0.3499   -1.5179    0.5135 C   0  0  0  0  0  0  0  0  0  0  0  0
   -1.3646   -0.3341   -0.9526 C   0  0  0  0  0  0  0  0  0  0  0  0
    2.1364    0.1529   -0.1391 C   0  0  0  0  0  0  0  0  0  0  0  0
   -2.0425   -1.4920    1.1089 C   0  0  0  0  0  0  0  0  0  0  0  0
    2.5248   -2.2707   -0.5704 C   0  0  0  0  0  0  0  0  0  0  0  0
   -1.9868    0.9836   -0.5741 C   0  0  0  0  0  0  0  0  0  0  0  0
    2.6578    0.9311   -1.1536 C   0  0  0  0  0  0  0  0  0  0  0  0
    2.2100    0.5321    1.1868 C   0  0  0  0  0  0  0  0  0  0  0  0
   -2.6600   -2.8071    0.6804 C   0  0  0  0  0  0  0  0  0  0  0  0
   -1.3868    1.7698    0.3928 C   0  0  0  0  0  0  0  0  0  0  0  0
   -3.1516    1.3932   -1.1974 C   0  0  0  0  0  0  0  0  0  0  0  0
    3.2786    2.1375   -0.8292 C   0  0  0  0  0  0  0  0  0  0  0  0
    2.8306    1.7385    1.5110 C   0  0  0  0  0  0  0  0  0  0  0  0
    3.3649    2.5410    0.5029 C   0  0  0  0  0  0  0  0  0  0  0  0
   -1.9987    2.9730    0.7056 C   0  0  0  0  0  0  0  0  0  0  0  0
   -3.6845    2.6132   -0.8135 C   0  0  0  0  0  0  0  0  0  0  0  0
    1.0336   -1.1214   -1.4972 H   0  0  0  0  0  0  0  0  0  0  0  0
   -2.0714   -0.9564   -1.5140 H   0  0  0  0  0  0  0  0  0  0  0  0
   -0.5455   -0.1042   -1.6317 H   0  0  0  0  0  0  0  0  0  0  0  0
   -1.6501   -1.6056    2.1260 H   0  0  0  0  0  0  0  0  0  0  0  0
   -2.8120   -0.7164    1.1600 H   0  0  0  0  0  0  0  0  0  0  0  0
    3.2591   -2.0550   -1.3549 H   0  0  0  0  0  0  0  0  0  0  0  0
    3.0625   -2.3757    0.3791 H   0  0  0  0  0  0  0  0  0  0  0  0
    2.5948    0.6238   -2.1932 H   0  0  0  0  0  0  0  0  0  0  0  0
    1.8256   -0.0681    2.0028 H   0  0  0  0  0  0  0  0  0  0  0  0
   -3.1079   -2.7329   -0.3155 H   0  0  0  0  0  0  0  0  0  0  0  0
   -1.9109   -3.6054    0.6504 H   0  0  0  0  0  0  0  0  0  0  0  0
   -3.4455   -3.1047    1.3823 H   0  0  0  0  0  0  0  0  0  0  0  0
   -0.4770    1.4826    0.9018 H   0  0  0  0  0  0  0  0  0  0  0  0
   -3.6397    0.7950   -1.9585 H   0  0  0  0  0  0  0  0  0  0  0  0
    3.6947    2.7624   -1.6140 H   0  0  0  0  0  0  0  0  0  0  0  0
    2.9015    2.0517    2.5487 H   0  0  0  0  0  0  0  0  0  0  0  0
    3.8487    3.4800    0.7557 H   0  0  0  0  0  0  0  0  0  0  0  0
    2.6223   -4.1844   -0.9059 H   0  0  0  0  0  0  0  0  0  0  0  0
   -1.5752    3.6327    1.4559 H   0  0  0  0  0  0  0  0  0  0  0  0
   -4.5963    2.9882   -1.2666 H   0  0  0  0  0  0  0  0  0  0  0  0
  1  6  2  0  0  0  0
  2 10  1  0  0  0  0
  2 39  1  0  0  0  0
  3  6  1  0  0  0  0
  3  7  1  0  0  0  0
  3  9  1  0  0  0  0
  4 20  2  0  0  0  0
  4 21  1  0  0  0  0
  5  6  1  0  0  0  0
  5  8  1  0  0  0  0
  5 10  1  0  0  0  0
  5 22  1  6  0  0  0
  7 11  1  0  0  0  0
  7 23  1  0  0  0  0
  7 24  1  0  0  0  0
  8 12  2  0  0  0  0
  8 13  1  0  0  0  0
  9 14  1  0  0  0  0
  9 25  1  0  0  0  0
  9 26  1  0  0  0  0
 10 27  1  0  0  0  0
 10 28  1  0  0  0  0
 11 15  2  0  0  0  0
 11 16  1  0  0  0  0
 12 17  1  0  0  0  0
 12 29  1  0  0  0  0
 13 18  2  0  0  0  0
 13 30  1  0  0  0  0
 14 31  1  0  0  0  0
 14 32  1  0  0  0  0
 14 33  1  0  0  0  0
 15 20  1  0  0  0  0
 15 34  1  0  0  0  0
 16 21  2  0  0  0  0
 16 35  1  0  0  0  0
 17 19  2  0  0  0  0
 17 36  1  0  0  0  0
 18 19  1  0  0  0  0
 18 37  1  0  0  0  0
 19 38  1  0  0  0  0
 20 40  1  0  0  0  0
 21 41  1  0  0  0  0
M  END
