DB00358
 OpenBabel07062211533D

 42 44  0  0  1  0  0  0  0  0999 V2000
    0.9506   -4.2317   -0.5863 F   0  0  0  0  0  0  0  0  0  0  0  0
    3.0697   -3.9501   -0.9525 F   0  0  0  0  0  0  0  0  0  0  0  0
    2.3025   -3.8845    1.0812 F   0  0  0  0  0  0  0  0  0  0  0  0
    5.9382    1.3525    1.1778 F   0  0  0  0  0  0  0  0  0  0  0  0
    4.8846   -0.3686    1.9725 F   0  0  0  0  0  0  0  0  0  0  0  0
    5.6327   -0.4027   -0.0690 F   0  0  0  0  0  0  0  0  0  0  0  0
   -1.3937   -0.5618   -2.3253 O   0  0  0  0  0  0  0  0  0  0  0  0
   -3.1191    1.0846   -0.7905 N   0  0  0  0  0  0  0  0  0  0  0  0
    2.8473   -1.2277    0.0640 N   0  0  0  0  0  0  0  0  0  0  0  0
   -1.8738    0.5401   -0.2349 C   0  0  1  0  0  0  0  0  0  0  0  0
   -2.1347   -0.7906    0.4843 C   0  0  0  0  0  0  0  0  0  0  0  0
   -0.8643    0.3489   -1.3654 C   0  0  1  0  0  0  0  0  0  0  0  0
   -3.2019   -0.6356    1.5643 C   0  0  0  0  0  0  0  0  0  0  0  0
   -4.4571    0.0109    0.9880 C   0  0  0  0  0  0  0  0  0  0  0  0
   -4.1235    1.3052    0.2503 C   0  0  0  0  0  0  0  0  0  0  0  0
    0.4581   -0.1722   -0.8582 C   0  0  0  0  0  0  0  0  0  0  0  0
    1.4918    0.6873   -0.4861 C   0  0  0  0  0  0  0  0  0  0  0  0
    0.6054   -1.5433   -0.7745 C   0  0  0  0  0  0  0  0  0  0  0  0
    2.6908    0.1069   -0.0221 C   0  0  0  0  0  0  0  0  0  0  0  0
    1.8149   -2.0181   -0.3092 C   0  0  0  0  0  0  0  0  0  0  0  0
    1.3629    2.0845   -0.5627 C   0  0  0  0  0  0  0  0  0  0  0  0
    3.7280    0.9570    0.3519 C   0  0  0  0  0  0  0  0  0  0  0  0
    2.4162    2.9109   -0.1820 C   0  0  0  0  0  0  0  0  0  0  0  0
    3.6002    2.3460    0.2758 C   0  0  0  0  0  0  0  0  0  0  0  0
    2.0294   -3.4907   -0.1965 C   0  0  0  0  0  0  0  0  0  0  0  0
    5.0230    0.3956    0.8518 C   0  0  0  0  0  0  0  0  0  0  0  0
   -1.4673    1.2618    0.4864 H   0  0  0  0  0  0  0  0  0  0  0  0
   -1.2371   -1.1552    0.9923 H   0  0  0  0  0  0  0  0  0  0  0  0
   -2.4607   -1.5663   -0.2199 H   0  0  0  0  0  0  0  0  0  0  0  0
   -0.7216    1.2780   -1.9256 H   0  0  0  0  0  0  0  0  0  0  0  0
   -2.8114   -0.0125    2.3785 H   0  0  0  0  0  0  0  0  0  0  0  0
   -3.4465   -1.6125    1.9956 H   0  0  0  0  0  0  0  0  0  0  0  0
   -4.9457   -0.6905    0.2997 H   0  0  0  0  0  0  0  0  0  0  0  0
   -5.1704    0.2167    1.7940 H   0  0  0  0  0  0  0  0  0  0  0  0
   -3.5005    0.4284   -1.4716 H   0  0  0  0  0  0  0  0  0  0  0  0
   -5.0318    1.7065   -0.2122 H   0  0  0  0  0  0  0  0  0  0  0  0
   -3.7681    2.0662    0.9554 H   0  0  0  0  0  0  0  0  0  0  0  0
   -0.1814   -2.2325   -1.0590 H   0  0  0  0  0  0  0  0  0  0  0  0
   -2.1143   -0.1117   -2.7974 H   0  0  0  0  0  0  0  0  0  0  0  0
    0.4545    2.5766   -0.8946 H   0  0  0  0  0  0  0  0  0  0  0  0
    2.3116    3.9901   -0.2382 H   0  0  0  0  0  0  0  0  0  0  0  0
    4.4125    3.0046    0.5701 H   0  0  0  0  0  0  0  0  0  0  0  0
  1 25  1  0  0  0  0
  2 25  1  0  0  0  0
  3 25  1  0  0  0  0
  4 26  1  0  0  0  0
  5 26  1  0  0  0  0
  6 26  1  0  0  0  0
  7 12  1  0  0  0  0
  7 39  1  0  0  0  0
  8 10  1  0  0  0  0
  8 15  1  0  0  0  0
  8 35  1  0  0  0  0
  9 19  2  0  0  0  0
  9 20  1  0  0  0  0
 10 11  1  0  0  0  0
 10 12  1  0  0  0  0
 10 27  1  1  0  0  0
 11 13  1  0  0  0  0
 11 28  1  0  0  0  0
 11 29  1  0  0  0  0
 12 16  1  0  0  0  0
 12 30  1  6  0  0  0
 13 14  1  0  0  0  0
 13 31  1  0  0  0  0
 13 32  1  0  0  0  0
 14 15  1  0  0  0  0
 14 33  1  0  0  0  0
 14 34  1  0  0  0  0
 15 36  1  0  0  0  0
 15 37  1  0  0  0  0
 16 17  2  0  0  0  0
 16 18  1  0  0  0  0
 17 19  1  0  0  0  0
 17 21  1  0  0  0  0
 18 20  2  0  0  0  0
 18 38  1  0  0  0  0
 19 22  1  0  0  0  0
 20 25  1  0  0  0  0
 21 23  2  0  0  0  0
 21 40  1  0  0  0  0
 22 24  2  0  0  0  0
 22 26  1  0  0  0  0
 23 24  1  0  0  0  0
 23 41  1  0  0  0  0
 24 42  1  0  0  0  0
M  END
