DB00555
 OpenBabel07062211533D

 23 24  0  0  0  0  0  0  0  0999 V2000
    0.8426   -2.3671    1.2808 Cl  0  0  0  0  0  0  0  0  0  0  0  0
    4.0396   -2.1923    1.2004 Cl  0  0  0  0  0  0  0  0  0  0  0  0
   -1.1140    0.5962    1.3920 N   0  0  0  0  0  0  0  0  0  0  0  0
   -2.6592   -0.2814   -0.7316 N   0  0  0  0  0  0  0  0  0  0  0  0
   -0.6962   -0.7686   -1.9635 N   0  0  0  0  0  0  0  0  0  0  0  0
   -2.4601    0.6216    1.4797 N   0  0  0  0  0  0  0  0  0  0  0  0
   -4.5732    0.2191    0.5319 N   0  0  0  0  0  0  0  0  0  0  0  0
    0.8960    0.1479    0.2547 C   0  0  0  0  0  0  0  0  0  0  0  0
   -0.5558    0.1392    0.2607 C   0  0  0  0  0  0  0  0  0  0  0  0
    1.6481   -0.9405    0.6966 C   0  0  0  0  0  0  0  0  0  0  0  0
    1.5371    1.2948   -0.2137 C   0  0  0  0  0  0  0  0  0  0  0  0
   -1.3189   -0.2936   -0.7868 C   0  0  0  0  0  0  0  0  0  0  0  0
    3.0416   -0.8820    0.6702 C   0  0  0  0  0  0  0  0  0  0  0  0
    2.9303    1.3533   -0.2401 C   0  0  0  0  0  0  0  0  0  0  0  0
    3.6826    0.2650    0.2019 C   0  0  0  0  0  0  0  0  0  0  0  0
   -3.1674    0.1839    0.4194 C   0  0  0  0  0  0  0  0  0  0  0  0
    0.9681    2.1536   -0.5622 H   0  0  0  0  0  0  0  0  0  0  0  0
    3.4295    2.2463   -0.6048 H   0  0  0  0  0  0  0  0  0  0  0  0
    4.7676    0.3286    0.1738 H   0  0  0  0  0  0  0  0  0  0  0  0
   -1.3096   -1.0711   -2.7105 H   0  0  0  0  0  0  0  0  0  0  0  0
    0.2088   -1.2164   -1.8915 H   0  0  0  0  0  0  0  0  0  0  0  0
   -4.9957    0.5631    1.3830 H   0  0  0  0  0  0  0  0  0  0  0  0
   -5.1420   -0.0998   -0.2403 H   0  0  0  0  0  0  0  0  0  0  0  0
  1 10  1  0  0  0  0
  2 13  1  0  0  0  0
  3  6  2  0  0  0  0
  3  9  1  0  0  0  0
  4 12  1  0  0  0  0
  4 16  2  0  0  0  0
  5 12  1  0  0  0  0
  5 20  1  0  0  0  0
  5 21  1  0  0  0  0
  6 16  1  0  0  0  0
  7 16  1  0  0  0  0
  7 22  1  0  0  0  0
  7 23  1  0  0  0  0
  8  9  1  0  0  0  0
  8 10  2  0  0  0  0
  8 11  1  0  0  0  0
  9 12  2  0  0  0  0
 10 13  1  0  0  0  0
 11 14  2  0  0  0  0
 11 17  1  0  0  0  0
 13 15  2  0  0  0  0
 14 15  1  0  0  0  0
 14 18  1  0  0  0  0
 15 19  1  0  0  0  0
M  END
