DB00552
 OpenBabel07062211533D

 35 37  0  0  1  0  0  0  0  0999 V2000
    2.0141    0.2245    1.0446 O   0  0  0  0  0  0  0  0  0  0  0  0
    3.1404   -2.5098    0.1578 O   0  0  0  0  0  0  0  0  0  0  0  0
    4.0619    2.1132    0.8110 O   0  0  0  0  0  0  0  0  0  0  0  0
   -4.2980    1.3246    1.1977 O   0  0  0  0  0  0  0  0  0  0  0  0
   -0.1945    0.3006    0.1821 N   0  0  0  0  0  0  0  0  0  0  0  0
   -1.4079    2.1344   -0.1673 N   0  0  0  0  0  0  0  0  0  0  0  0
   -1.8796   -1.3677    0.4035 N   0  0  0  0  0  0  0  0  0  0  0  0
   -4.3051   -1.3139    0.0082 N   0  0  0  0  0  0  0  0  0  0  0  0
    0.9911   -0.5276    0.3691 C   0  0  1  0  0  0  0  0  0  0  0  0
    1.6067   -1.0410   -0.9245 C   0  0  0  0  0  0  0  0  0  0  0  0
    3.0455   -1.2551   -0.5133 C   0  0  1  0  0  0  0  0  0  0  0  0
    3.2954   -0.1247    0.4796 C   0  0  1  0  0  0  0  0  0  0  0  0
    3.8744    1.1189   -0.1807 C   0  0  0  0  0  0  0  0  0  0  0  0
   -1.4996   -0.0953    0.1904 C   0  0  1  0  0  0  0  0  0  0  0  0
   -2.2348    1.0462   -0.0218 C   0  0  0  0  0  0  0  0  0  0  0  0
   -0.1898    1.6517   -0.0402 C   0  0  0  0  0  0  0  0  0  0  0  0
   -3.7127    1.1497   -0.0906 C   0  0  1  0  0  0  0  0  0  0  0  0
   -4.3504   -0.0674   -0.7690 C   0  0  0  0  0  0  0  0  0  0  0  0
   -3.1904   -1.8016    0.4198 C   0  0  0  0  0  0  0  0  0  0  0  0
    0.7232   -1.3495    1.0410 H   0  0  0  0  0  0  0  0  0  0  0  0
    1.5514   -0.2806   -1.7125 H   0  0  0  0  0  0  0  0  0  0  0  0
    1.1042   -1.9463   -1.2788 H   0  0  0  0  0  0  0  0  0  0  0  0
    3.7430   -1.2743   -1.3547 H   0  0  0  0  0  0  0  0  0  0  0  0
    3.9353   -0.4380    1.3123 H   0  0  0  0  0  0  0  0  0  0  0  0
    3.1925    1.5251   -0.9345 H   0  0  0  0  0  0  0  0  0  0  0  0
    4.8404    0.9008   -0.6467 H   0  0  0  0  0  0  0  0  0  0  0  0
    0.7201    2.2328   -0.1044 H   0  0  0  0  0  0  0  0  0  0  0  0
   -3.9712    2.0360   -0.6831 H   0  0  0  0  0  0  0  0  0  0  0  0
    2.6430   -2.4612    0.9910 H   0  0  0  0  0  0  0  0  0  0  0  0
   -1.1797   -2.0660    0.6412 H   0  0  0  0  0  0  0  0  0  0  0  0
   -5.4133    0.1521   -0.9278 H   0  0  0  0  0  0  0  0  0  0  0  0
   -3.9158   -0.2396   -1.7619 H   0  0  0  0  0  0  0  0  0  0  0  0
    4.4325    2.8948    0.3669 H   0  0  0  0  0  0  0  0  0  0  0  0
   -3.2434   -2.7855    0.9159 H   0  0  0  0  0  0  0  0  0  0  0  0
   -3.9288    2.1394    1.5795 H   0  0  0  0  0  0  0  0  0  0  0  0
  1  9  1  0  0  0  0
  1 12  1  0  0  0  0
  2 11  1  0  0  0  0
  2 29  1  0  0  0  0
  3 13  1  0  0  0  0
  3 33  1  0  0  0  0
  4 17  1  0  0  0  0
  4 35  1  0  0  0  0
  5  9  1  0  0  0  0
  5 14  1  0  0  0  0
  5 16  2  0  0  0  0
  6 15  2  0  0  0  0
  6 16  1  0  0  0  0
  7 14  1  0  0  0  0
  7 19  1  0  0  0  0
  7 30  1  0  0  0  0
  8 18  1  0  0  0  0
  8 19  2  0  0  0  0
  9 10  1  0  0  0  0
  9 20  1  1  0  0  0
 10 11  1  0  0  0  0
 10 21  1  0  0  0  0
 10 22  1  0  0  0  0
 11 12  1  1  0  0  0
 11 23  1  0  0  0  0
 12 13  1  0  0  0  0
 12 24  1  1  0  0  0
 13 25  1  0  0  0  0
 13 26  1  0  0  0  0
 14 15  1  1  0  0  0
 15 17  1  0  0  0  0
 16 27  1  0  0  0  0
 17 18  1  0  0  0  0
 17 28  1  6  0  0  0
 18 31  1  0  0  0  0
 18 32  1  0  0  0  0
 19 34  1  0  0  0  0
M  END
