DB00373
 OpenBabel07062211533D

 45 46  0  0  1  0  0  0  0  0999 V2000
   -2.8846    3.2485   -2.3320 S   0  0  0  0  0  0  0  0  0  0  0  0
   -3.5839   -2.4556    0.8018 O   0  0  0  0  0  0  0  0  0  0  0  0
   -0.7778    1.5877    0.1868 O   0  0  0  0  0  0  0  0  0  0  0  0
    0.4883    1.7586    2.6902 O   0  0  0  0  0  0  0  0  0  0  0  0
    2.6390    0.6967   -0.1258 N   0  0  0  0  0  0  0  0  0  0  0  0
   -3.0969   -0.0458   -0.5669 N   0  0  0  0  0  0  0  0  0  0  0  0
   -3.6346    1.7790   -2.0267 N   0  0  0  0  0  0  0  0  0  0  0  0
   -1.5682    3.1357   -1.2978 N   0  0  0  0  0  0  0  0  0  0  0  0
    3.1986   -0.6114   -0.4820 C   0  0  0  0  0  0  0  0  0  0  0  0
    1.8238    0.5943    1.0727 C   0  0  0  0  0  0  0  0  0  0  0  0
    1.2184    1.9416    1.4736 C   0  0  1  0  0  0  0  0  0  0  0  0
   -2.0604   -1.0826   -0.5021 C   0  0  0  0  0  0  0  0  0  0  0  0
   -4.4659   -0.5565   -0.4143 C   0  0  0  0  0  0  0  0  0  0  0  0
    2.0557   -1.5989   -0.7461 C   0  0  0  0  0  0  0  0  0  0  0  0
    4.0632   -1.1057    0.6826 C   0  0  0  0  0  0  0  0  0  0  0  0
    4.0560   -0.4493   -1.7415 C   0  0  0  0  0  0  0  0  0  0  0  0
   -2.2599   -1.9223    0.7561 C   0  0  0  0  0  0  0  0  0  0  0  0
   -4.5524   -1.4065    0.8468 C   0  0  0  0  0  0  0  0  0  0  0  0
    0.2756    2.5177    0.4193 C   0  0  0  0  0  0  0  0  0  0  0  0
   -2.8557    1.1950   -1.1133 C   0  0  0  0  0  0  0  0  0  0  0  0
   -1.7300    1.9527   -0.7269 C   0  0  0  0  0  0  0  0  0  0  0  0
    2.0765    1.0433   -0.9018 H   0  0  0  0  0  0  0  0  0  0  0  0
    0.9978   -0.1172    0.9779 H   0  0  0  0  0  0  0  0  0  0  0  0
    2.4125    0.2696    1.9370 H   0  0  0  0  0  0  0  0  0  0  0  0
    2.0136    2.6692    1.6763 H   0  0  0  0  0  0  0  0  0  0  0  0
   -2.1672   -1.7229   -1.3869 H   0  0  0  0  0  0  0  0  0  0  0  0
   -1.0429   -0.6861   -0.5202 H   0  0  0  0  0  0  0  0  0  0  0  0
   -4.7167   -1.1598   -1.2950 H   0  0  0  0  0  0  0  0  0  0  0  0
   -5.1923    0.2616   -0.3430 H   0  0  0  0  0  0  0  0  0  0  0  0
    1.3131   -1.1837   -1.4375 H   0  0  0  0  0  0  0  0  0  0  0  0
    2.4472   -2.5106   -1.2144 H   0  0  0  0  0  0  0  0  0  0  0  0
    1.5400   -1.9300    0.1611 H   0  0  0  0  0  0  0  0  0  0  0  0
    3.4829   -1.4628    1.5400 H   0  0  0  0  0  0  0  0  0  0  0  0
    4.7598   -0.3328    1.0290 H   0  0  0  0  0  0  0  0  0  0  0  0
    4.6739   -1.9593    0.3623 H   0  0  0  0  0  0  0  0  0  0  0  0
    4.8723    0.2643   -1.5791 H   0  0  0  0  0  0  0  0  0  0  0  0
    4.5061   -1.4030   -2.0400 H   0  0  0  0  0  0  0  0  0  0  0  0
    3.4597   -0.0874   -2.5875 H   0  0  0  0  0  0  0  0  0  0  0  0
   -1.5596   -2.7635    0.7573 H   0  0  0  0  0  0  0  0  0  0  0  0
   -2.0734   -1.3325    1.6618 H   0  0  0  0  0  0  0  0  0  0  0  0
   -4.3944   -0.8039    1.7494 H   0  0  0  0  0  0  0  0  0  0  0  0
   -5.5427   -1.8665    0.9216 H   0  0  0  0  0  0  0  0  0  0  0  0
   -0.1512    3.4482    0.8163 H   0  0  0  0  0  0  0  0  0  0  0  0
    0.8199    2.7366   -0.5065 H   0  0  0  0  0  0  0  0  0  0  0  0
    1.1169    1.4563    3.3677 H   0  0  0  0  0  0  0  0  0  0  0  0
  1  7  1  0  0  0  0
  1  8  1  0  0  0  0
  2 17  1  0  0  0  0
  2 18  1  0  0  0  0
  3 19  1  0  0  0  0
  3 21  1  0  0  0  0
  4 11  1  0  0  0  0
  4 45  1  0  0  0  0
  5  9  1  0  0  0  0
  5 10  1  0  0  0  0
  5 22  1  0  0  0  0
  6 12  1  0  0  0  0
  6 13  1  0  0  0  0
  6 20  1  0  0  0  0
  7 20  2  0  0  0  0
  8 21  2  0  0  0  0
  9 14  1  0  0  0  0
  9 15  1  0  0  0  0
  9 16  1  0  0  0  0
 10 11  1  0  0  0  0
 10 23  1  0  0  0  0
 10 24  1  0  0  0  0
 11 19  1  0  0  0  0
 11 25  1  1  0  0  0
 12 17  1  0  0  0  0
 12 26  1  0  0  0  0
 12 27  1  0  0  0  0
 13 18  1  0  0  0  0
 13 28  1  0  0  0  0
 13 29  1  0  0  0  0
 14 30  1  0  0  0  0
 14 31  1  0  0  0  0
 14 32  1  0  0  0  0
 15 33  1  0  0  0  0
 15 34  1  0  0  0  0
 15 35  1  0  0  0  0
 16 36  1  0  0  0  0
 16 37  1  0  0  0  0
 16 38  1  0  0  0  0
 17 39  1  0  0  0  0
 17 40  1  0  0  0  0
 18 41  1  0  0  0  0
 18 42  1  0  0  0  0
 19 43  1  0  0  0  0
 19 44  1  0  0  0  0
 20 21  1  0  0  0  0
M  END
