DB00777
 OpenBabel07062211533D

 48 50  0  0  1  0  0  0  0  0999 V2000
   -2.0123   -3.2468   -0.9376 S   0  0  0  0  0  0  0  0  0  0  0  0
    4.6321   -2.4306   -0.1812 O   0  0  0  0  0  0  0  0  0  0  0  0
   -1.1071   -0.5054    0.2153 N   0  0  0  0  0  0  0  0  0  0  0  0
    0.0618    2.8933   -0.8196 N   0  0  0  0  0  0  0  0  0  0  0  0
   -0.2658    1.4763   -0.9891 C   0  0  1  0  0  0  0  0  0  0  0  0
   -0.7457    0.9114    0.3518 C   0  0  0  0  0  0  0  0  0  0  0  0
   -0.0659   -1.4186   -0.0886 C   0  0  0  0  0  0  0  0  0  0  0  0
   -2.4567   -0.8617    0.4644 C   0  0  0  0  0  0  0  0  0  0  0  0
   -1.3245    1.3448   -2.0839 C   0  0  0  0  0  0  0  0  0  0  0  0
   -0.3506   -2.7024   -0.5945 C   0  0  0  0  0  0  0  0  0  0  0  0
   -2.9785   -2.0904    0.0128 C   0  0  0  0  0  0  0  0  0  0  0  0
    1.2928   -1.1040    0.1327 C   0  0  0  0  0  0  0  0  0  0  0  0
   -3.3266   -0.0282    1.2009 C   0  0  0  0  0  0  0  0  0  0  0  0
    1.0739    3.0610    0.2217 C   0  0  0  0  0  0  0  0  0  0  0  0
   -1.1403    3.6588   -0.4941 C   0  0  0  0  0  0  0  0  0  0  0  0
    2.3184   -2.0089   -0.1543 C   0  0  0  0  0  0  0  0  0  0  0  0
    0.6855   -3.6073   -0.8862 C   0  0  0  0  0  0  0  0  0  0  0  0
   -4.3155   -2.4423    0.2694 C   0  0  0  0  0  0  0  0  0  0  0  0
    2.0146   -3.2610   -0.6671 C   0  0  0  0  0  0  0  0  0  0  0  0
   -4.6532   -0.3852    1.4573 C   0  0  0  0  0  0  0  0  0  0  0  0
   -5.1490   -1.5921    0.9885 C   0  0  0  0  0  0  0  0  0  0  0  0
    3.7051   -1.6359    0.0772 C   0  0  0  0  0  0  0  0  0  0  0  0
    4.0420   -0.2463    0.6465 C   0  0  0  0  0  0  0  0  0  0  0  0
    5.5318   -0.0166    0.8465 C   0  0  0  0  0  0  0  0  0  0  0  0
    0.6330    0.9695   -1.3552 H   0  0  0  0  0  0  0  0  0  0  0  0
   -0.0255    1.0039    1.1705 H   0  0  0  0  0  0  0  0  0  0  0  0
   -1.5857    1.5109    0.6765 H   0  0  0  0  0  0  0  0  0  0  0  0
   -2.3365    1.5887   -1.7436 H   0  0  0  0  0  0  0  0  0  0  0  0
   -1.0851    1.9642   -2.9562 H   0  0  0  0  0  0  0  0  0  0  0  0
   -1.3614    0.3098   -2.4444 H   0  0  0  0  0  0  0  0  0  0  0  0
    1.5525   -0.1419    0.5563 H   0  0  0  0  0  0  0  0  0  0  0  0
   -3.0123    0.8968    1.6722 H   0  0  0  0  0  0  0  0  0  0  0  0
    1.9227    2.3851    0.0716 H   0  0  0  0  0  0  0  0  0  0  0  0
    0.6974    2.9461    1.2436 H   0  0  0  0  0  0  0  0  0  0  0  0
    1.4840    4.0762    0.1564 H   0  0  0  0  0  0  0  0  0  0  0  0
   -0.8652    4.7221   -0.4713 H   0  0  0  0  0  0  0  0  0  0  0  0
   -1.5787    3.4575    0.4874 H   0  0  0  0  0  0  0  0  0  0  0  0
   -1.9199    3.6086   -1.2593 H   0  0  0  0  0  0  0  0  0  0  0  0
    0.4665   -4.5946   -1.2882 H   0  0  0  0  0  0  0  0  0  0  0  0
   -4.7223   -3.3861   -0.0882 H   0  0  0  0  0  0  0  0  0  0  0  0
    2.7894   -3.9849   -0.9033 H   0  0  0  0  0  0  0  0  0  0  0  0
   -5.2905    0.2758    2.0379 H   0  0  0  0  0  0  0  0  0  0  0  0
   -6.1783   -1.8749    1.1864 H   0  0  0  0  0  0  0  0  0  0  0  0
    3.6672    0.5132   -0.0481 H   0  0  0  0  0  0  0  0  0  0  0  0
    3.5455   -0.1357    1.6167 H   0  0  0  0  0  0  0  0  0  0  0  0
    6.0728   -0.1051   -0.1012 H   0  0  0  0  0  0  0  0  0  0  0  0
    5.7127    0.9835    1.2523 H   0  0  0  0  0  0  0  0  0  0  0  0
    5.9516   -0.7505    1.5424 H   0  0  0  0  0  0  0  0  0  0  0  0
  1 10  1  0  0  0  0
  1 11  1  0  0  0  0
  2 22  2  0  0  0  0
  3  6  1  0  0  0  0
  3  7  1  0  0  0  0
  3  8  1  0  0  0  0
  4  5  1  0  0  0  0
  4 14  1  0  0  0  0
  4 15  1  0  0  0  0
  5  6  1  0  0  0  0
  5  9  1  0  0  0  0
  5 25  1  6  0  0  0
  6 26  1  0  0  0  0
  6 27  1  0  0  0  0
  7 10  2  0  0  0  0
  7 12  1  0  0  0  0
  8 11  2  0  0  0  0
  8 13  1  0  0  0  0
  9 28  1  0  0  0  0
  9 29  1  0  0  0  0
  9 30  1  0  0  0  0
 10 17  1  0  0  0  0
 11 18  1  0  0  0  0
 12 16  2  0  0  0  0
 12 31  1  0  0  0  0
 13 20  2  0  0  0  0
 13 32  1  0  0  0  0
 14 33  1  0  0  0  0
 14 34  1  0  0  0  0
 14 35  1  0  0  0  0
 15 36  1  0  0  0  0
 15 37  1  0  0  0  0
 15 38  1  0  0  0  0
 16 19  1  0  0  0  0
 16 22  1  0  0  0  0
 17 19  2  0  0  0  0
 17 39  1  0  0  0  0
 18 21  2  0  0  0  0
 18 40  1  0  0  0  0
 19 41  1  0  0  0  0
 20 21  1  0  0  0  0
 20 42  1  0  0  0  0
 21 43  1  0  0  0  0
 22 23  1  0  0  0  0
 23 24  1  0  0  0  0
 23 44  1  0  0  0  0
 23 45  1  0  0  0  0
 24 46  1  0  0  0  0
 24 47  1  0  0  0  0
 24 48  1  0  0  0  0
M  END
