DB00890
 OpenBabel07062211533D

 38 39  0  0  0  0  0  0  0  0999 V2000
    3.8810    3.2093    0.8063 O   0  0  0  0  0  0  0  0  0  0  0  0
   -3.8808    3.2095   -0.8061 O   0  0  0  0  0  0  0  0  0  0  0  0
    0.7077   -1.3011   -0.1945 C   0  0  0  0  0  0  0  0  0  0  0  0
   -0.7079   -1.3011    0.1945 C   0  0  0  0  0  0  0  0  0  0  0  0
    1.5463   -0.1080    0.0701 C   0  0  0  0  0  0  0  0  0  0  0  0
   -1.5464   -0.1079   -0.0701 C   0  0  0  0  0  0  0  0  0  0  0  0
    1.3258   -2.3584   -0.7637 C   0  0  0  0  0  0  0  0  0  0  0  0
   -1.3256   -2.3587    0.7635 C   0  0  0  0  0  0  0  0  0  0  0  0
    1.6561    0.8634   -0.9055 C   0  0  0  0  0  0  0  0  0  0  0  0
   -1.6563    0.8634    0.9055 C   0  0  0  0  0  0  0  0  0  0  0  0
    2.1947   -0.0018    1.2850 C   0  0  0  0  0  0  0  0  0  0  0  0
   -2.1949   -0.0016   -1.2850 C   0  0  0  0  0  0  0  0  0  0  0  0
    2.4461    1.9858   -0.6564 C   0  0  0  0  0  0  0  0  0  0  0  0
   -2.4461    1.9858    0.6564 C   0  0  0  0  0  0  0  0  0  0  0  0
    2.9845    1.1206    1.5342 C   0  0  0  0  0  0  0  0  0  0  0  0
   -2.9845    1.1209   -1.5341 C   0  0  0  0  0  0  0  0  0  0  0  0
    3.1103    2.1144    0.5635 C   0  0  0  0  0  0  0  0  0  0  0  0
   -3.1103    2.1146   -0.5635 C   0  0  0  0  0  0  0  0  0  0  0  0
    2.7651   -2.4692   -1.1610 C   0  0  0  0  0  0  0  0  0  0  0  0
   -2.7651   -2.4695    1.1609 C   0  0  0  0  0  0  0  0  0  0  0  0
    0.7427   -3.2536   -0.9760 H   0  0  0  0  0  0  0  0  0  0  0  0
   -0.7424   -3.2539    0.9757 H   0  0  0  0  0  0  0  0  0  0  0  0
    1.1455    0.7740   -1.8605 H   0  0  0  0  0  0  0  0  0  0  0  0
   -1.1456    0.7739    1.8605 H   0  0  0  0  0  0  0  0  0  0  0  0
    2.1036   -0.7691    2.0488 H   0  0  0  0  0  0  0  0  0  0  0  0
   -2.1038   -0.7689   -2.0489 H   0  0  0  0  0  0  0  0  0  0  0  0
    2.5360    2.7527   -1.4209 H   0  0  0  0  0  0  0  0  0  0  0  0
   -2.5359    2.7527    1.4210 H   0  0  0  0  0  0  0  0  0  0  0  0
    3.4994    1.2152    2.4864 H   0  0  0  0  0  0  0  0  0  0  0  0
   -3.4992    1.2156   -2.4864 H   0  0  0  0  0  0  0  0  0  0  0  0
    2.8302   -2.6742   -2.2345 H   0  0  0  0  0  0  0  0  0  0  0  0
    3.3688   -1.5826   -0.9579 H   0  0  0  0  0  0  0  0  0  0  0  0
    3.2241   -3.3097   -0.6303 H   0  0  0  0  0  0  0  0  0  0  0  0
   -3.2241   -3.3098    0.6300 H   0  0  0  0  0  0  0  0  0  0  0  0
   -2.8300   -2.6748    2.2344 H   0  0  0  0  0  0  0  0  0  0  0  0
   -3.3687   -1.5829    0.9582 H   0  0  0  0  0  0  0  0  0  0  0  0
    3.8541    3.7924    0.0282 H   0  0  0  0  0  0  0  0  0  0  0  0
   -3.8540    3.7925   -0.0279 H   0  0  0  0  0  0  0  0  0  0  0  0
  1 17  1  0  0  0  0
  1 37  1  0  0  0  0
  2 18  1  0  0  0  0
  2 38  1  0  0  0  0
  3  4  1  0  0  0  0
  3  5  1  0  0  0  0
  3  7  2  0  0  0  0
  4  6  1  0  0  0  0
  4  8  2  0  0  0  0
  5  9  2  0  0  0  0
  5 11  1  0  0  0  0
  6 10  2  0  0  0  0
  6 12  1  0  0  0  0
  7 19  1  0  0  0  0
  7 21  1  0  0  0  0
  8 20  1  0  0  0  0
  8 22  1  0  0  0  0
  9 13  1  0  0  0  0
  9 23  1  0  0  0  0
 10 14  1  0  0  0  0
 10 24  1  0  0  0  0
 11 15  2  0  0  0  0
 11 25  1  0  0  0  0
 12 16  2  0  0  0  0
 12 26  1  0  0  0  0
 13 17  2  0  0  0  0
 13 27  1  0  0  0  0
 14 18  2  0  0  0  0
 14 28  1  0  0  0  0
 15 17  1  0  0  0  0
 15 29  1  0  0  0  0
 16 18  1  0  0  0  0
 16 30  1  0  0  0  0
 19 31  1  0  0  0  0
 19 32  1  0  0  0  0
 19 33  1  0  0  0  0
 20 34  1  0  0  0  0
 20 35  1  0  0  0  0
 20 36  1  0  0  0  0
M  END
