DB00259
 OpenBabel07062211533D

 19 19  0  0  0  0  0  0  0  0999 V2000
   -2.4448    0.0003    0.6052 S   0  0  0  0  0  0  0  0  0  0  0  0
   -2.8181   -1.2591    1.2336 O   0  0  0  0  0  0  0  0  0  0  0  0
   -2.8212    1.2603    1.2308 O   0  0  0  0  0  0  0  0  0  0  0  0
   -3.0077   -0.0005   -1.0081 N   0  0  0  0  0  0  0  0  0  0  0  0
    3.4409    0.0001   -0.2414 N   0  0  0  0  0  0  0  0  0  0  0  0
   -0.7169    0.0001    0.3546 C   0  0  0  0  0  0  0  0  0  0  0  0
   -0.0266   -1.2079    0.2551 C   0  0  0  0  0  0  0  0  0  0  0  0
   -0.0265    1.2080    0.2551 C   0  0  0  0  0  0  0  0  0  0  0  0
    2.0444   -0.0002   -0.0434 C   0  0  0  0  0  0  0  0  0  0  0  0
    1.3539   -1.2080    0.0561 C   0  0  0  0  0  0  0  0  0  0  0  0
    1.3542    1.2079    0.0561 C   0  0  0  0  0  0  0  0  0  0  0  0
   -0.5448   -2.1604    0.3234 H   0  0  0  0  0  0  0  0  0  0  0  0
   -0.5445    2.1604    0.3235 H   0  0  0  0  0  0  0  0  0  0  0  0
    1.8805   -2.1559   -0.0208 H   0  0  0  0  0  0  0  0  0  0  0  0
    1.8808    2.1558   -0.0207 H   0  0  0  0  0  0  0  0  0  0  0  0
   -3.4431   -0.8616   -1.3606 H   0  0  0  0  0  0  0  0  0  0  0  0
   -3.4430    0.8603   -1.3615 H   0  0  0  0  0  0  0  0  0  0  0  0
    3.9413   -0.8753   -0.3185 H   0  0  0  0  0  0  0  0  0  0  0  0
    3.9411    0.8757   -0.3185 H   0  0  0  0  0  0  0  0  0  0  0  0
  1  2  2  0  0  0  0
  1  3  2  0  0  0  0
  1  4  1  0  0  0  0
  1  6  1  0  0  0  0
  4 16  1  0  0  0  0
  4 17  1  0  0  0  0
  5  9  1  0  0  0  0
  5 18  1  0  0  0  0
  5 19  1  0  0  0  0
  6  7  2  0  0  0  0
  6  8  1  0  0  0  0
  7 10  1  0  0  0  0
  7 12  1  0  0  0  0
  8 11  2  0  0  0  0
  8 13  1  0  0  0  0
  9 10  2  0  0  0  0
  9 11  1  0  0  0  0
 10 14  1  0  0  0  0
 11 15  1  0  0  0  0
M  END
