DB00394
 OpenBabel07062211533D

 73 76  0  0  1  0  0  0  0  0999 V2000
   -2.5661    0.1355   -2.1585 Cl  0  0  0  0  0  0  0  0  0  0  0  0
    1.6740   -1.1229   -0.9303 O   0  0  0  0  0  0  0  0  0  0  0  0
   -1.6604    2.3320    1.0869 O   0  0  0  0  0  0  0  0  0  0  0  0
    3.2312   -1.3018    1.8394 O   0  0  0  0  0  0  0  0  0  0  0  0
    4.3969    0.9075    0.6732 O   0  0  0  0  0  0  0  0  0  0  0  0
    3.3903   -2.5959   -0.4739 O   0  0  0  0  0  0  0  0  0  0  0  0
   -7.2723    1.4237   -2.9544 O   0  0  0  0  0  0  0  0  0  0  0  0
    4.2321    3.1121    0.0123 O   0  0  0  0  0  0  0  0  0  0  0  0
    0.0429   -0.2394    0.7047 C   0  0  1  0  0  0  0  0  0  0  0  0
   -1.0694   -1.2426    0.3196 C   0  0  2  0  0  0  0  0  0  0  0  0
   -2.4871   -0.6771    0.5111 C   0  0  1  0  0  0  0  0  0  0  0  0
   -2.6969    0.6213   -0.3664 C   0  0  1  0  0  0  0  0  0  0  0  0
    1.3020   -1.1269    0.4538 C   0  0  1  0  0  0  0  0  0  0  0  0
   -0.6657   -2.5045    1.0766 C   0  0  0  0  0  0  0  0  0  0  0  0
   -0.1073    1.0028   -0.2030 C   0  0  0  0  0  0  0  0  0  0  0  0
    0.8698   -2.5712    0.8671 C   0  0  2  0  0  0  0  0  0  0  0  0
   -1.5213    1.6386   -0.1476 C   0  0  2  0  0  0  0  0  0  0  0  0
   -4.1683    1.2050   -0.1502 C   0  0  1  0  0  0  0  0  0  0  0  0
   -3.5665   -1.7447    0.2466 C   0  0  0  0  0  0  0  0  0  0  0  0
   -0.0021    0.1850    2.2002 C   0  0  0  0  0  0  0  0  0  0  0  0
   -4.9793   -1.1873    0.4037 C   0  0  0  0  0  0  0  0  0  0  0  0
   -5.1750    0.0718   -0.4048 C   0  0  0  0  0  0  0  0  0  0  0  0
    2.5727   -0.6147    1.0601 C   0  0  0  0  0  0  0  0  0  0  0  0
    1.5532   -3.1725    2.0919 C   0  0  0  0  0  0  0  0  0  0  0  0
   -4.4422    1.7331    1.2816 C   0  0  0  0  0  0  0  0  0  0  0  0
   -4.4276    2.3971   -1.0637 C   0  0  0  0  0  0  0  0  0  0  0  0
   -6.1654    0.1505   -1.3076 C   0  0  0  0  0  0  0  0  0  0  0  0
    2.9904    0.7841    0.6594 C   0  0  0  0  0  0  0  0  0  0  0  0
   -5.4146    2.4767   -1.9617 C   0  0  0  0  0  0  0  0  0  0  0  0
    2.7433   -1.9085   -1.2521 C   0  0  0  0  0  0  0  0  0  0  0  0
   -6.3583    1.3570   -2.1391 C   0  0  0  0  0  0  0  0  0  0  0  0
    3.0029   -1.7937   -2.7359 C   0  0  0  0  0  0  0  0  0  0  0  0
    4.1944   -2.6272   -3.1739 C   0  0  0  0  0  0  0  0  0  0  0  0
    4.9021    2.1378    0.3259 C   0  0  0  0  0  0  0  0  0  0  0  0
    6.4110    2.1030    0.3911 C   0  0  0  0  0  0  0  0  0  0  0  0
    7.0312    3.4326   -0.0015 C   0  0  0  0  0  0  0  0  0  0  0  0
   -0.9600   -1.4985   -0.7446 H   0  0  0  0  0  0  0  0  0  0  0  0
   -2.5971   -0.4024    1.5647 H   0  0  0  0  0  0  0  0  0  0  0  0
   -1.1528   -3.3978    0.6710 H   0  0  0  0  0  0  0  0  0  0  0  0
   -0.9344   -2.4361    2.1369 H   0  0  0  0  0  0  0  0  0  0  0  0
    0.1113    0.7404   -1.2442 H   0  0  0  0  0  0  0  0  0  0  0  0
    0.6152    1.7723    0.0844 H   0  0  0  0  0  0  0  0  0  0  0  0
    1.0176   -3.2718    0.0348 H   0  0  0  0  0  0  0  0  0  0  0  0
   -1.5633    2.4115   -0.9252 H   0  0  0  0  0  0  0  0  0  0  0  0
   -3.4471   -2.5764    0.9515 H   0  0  0  0  0  0  0  0  0  0  0  0
   -3.4478   -2.1753   -0.7550 H   0  0  0  0  0  0  0  0  0  0  0  0
    0.2894   -0.6229    2.8763 H   0  0  0  0  0  0  0  0  0  0  0  0
    0.6743    1.0215    2.3990 H   0  0  0  0  0  0  0  0  0  0  0  0
   -0.9927    0.5057    2.5270 H   0  0  0  0  0  0  0  0  0  0  0  0
   -5.6974   -1.9637    0.1124 H   0  0  0  0  0  0  0  0  0  0  0  0
   -5.1773   -0.9745    1.4610 H   0  0  0  0  0  0  0  0  0  0  0  0
    2.5829   -3.4795    1.8879 H   0  0  0  0  0  0  0  0  0  0  0  0
    1.5133   -2.5223    2.9704 H   0  0  0  0  0  0  0  0  0  0  0  0
    1.0324   -4.0959    2.3763 H   0  0  0  0  0  0  0  0  0  0  0  0
   -5.5179    1.8825    1.4476 H   0  0  0  0  0  0  0  0  0  0  0  0
   -3.9764    2.7069    1.4670 H   0  0  0  0  0  0  0  0  0  0  0  0
   -4.0958    1.0504    2.0623 H   0  0  0  0  0  0  0  0  0  0  0  0
   -3.7695    3.2577   -0.9649 H   0  0  0  0  0  0  0  0  0  0  0  0
   -0.9532    2.9974    1.1368 H   0  0  0  0  0  0  0  0  0  0  0  0
   -6.8565   -0.6699   -1.4698 H   0  0  0  0  0  0  0  0  0  0  0  0
    2.6521    1.0086   -0.3549 H   0  0  0  0  0  0  0  0  0  0  0  0
    2.5594    1.4951    1.3690 H   0  0  0  0  0  0  0  0  0  0  0  0
   -5.5490    3.3603   -2.5749 H   0  0  0  0  0  0  0  0  0  0  0  0
    3.1902   -0.7413   -2.9736 H   0  0  0  0  0  0  0  0  0  0  0  0
    2.1081   -2.1291   -3.2708 H   0  0  0  0  0  0  0  0  0  0  0  0
    5.1063   -2.3112   -2.6563 H   0  0  0  0  0  0  0  0  0  0  0  0
    4.3581   -2.5222   -4.2508 H   0  0  0  0  0  0  0  0  0  0  0  0
    4.0347   -3.6878   -2.9532 H   0  0  0  0  0  0  0  0  0  0  0  0
    6.7684    1.3216   -0.2878 H   0  0  0  0  0  0  0  0  0  0  0  0
    6.7070    1.8518    1.4151 H   0  0  0  0  0  0  0  0  0  0  0  0
    8.1226    3.3753    0.0540 H   0  0  0  0  0  0  0  0  0  0  0  0
    6.7541    3.7088   -1.0243 H   0  0  0  0  0  0  0  0  0  0  0  0
    6.6959    4.2347    0.6643 H   0  0  0  0  0  0  0  0  0  0  0  0
  1 12  1  0  0  0  0
  2 13  1  0  0  0  0
  2 30  1  0  0  0  0
  3 17  1  0  0  0  0
  3 59  1  0  0  0  0
  4 23  2  0  0  0  0
  5 28  1  0  0  0  0
  5 34  1  0  0  0  0
  6 30  2  0  0  0  0
  7 31  2  0  0  0  0
  8 34  2  0  0  0  0
  9 10  1  6  0  0  0
  9 15  1  0  0  0  0
  9 20  1  0  0  0  0
 10 11  1  1  0  0  0
 10 14  1  0  0  0  0
 10 37  1  0  0  0  0
 11 12  1  6  0  0  0
 11 19  1  0  0  0  0
 11 38  1  0  0  0  0
 12 17  1  1  0  0  0
 13  9  1  1  0  0  0
 13 23  1  0  0  0  0
 14 16  1  0  0  0  0
 14 39  1  0  0  0  0
 14 40  1  0  0  0  0
 15 17  1  0  0  0  0
 15 41  1  0  0  0  0
 15 42  1  0  0  0  0
 16 13  1  6  0  0  0
 16 24  1  0  0  0  0
 16 43  1  0  0  0  0
 17 44  1  6  0  0  0
 18 12  1  6  0  0  0
 18 22  1  0  0  0  0
 18 25  1  0  0  0  0
 18 26  1  0  0  0  0
 19 21  1  0  0  0  0
 19 45  1  0  0  0  0
 19 46  1  0  0  0  0
 20 47  1  0  0  0  0
 20 48  1  0  0  0  0
 20 49  1  0  0  0  0
 21 22  1  0  0  0  0
 21 50  1  0  0  0  0
 21 51  1  0  0  0  0
 22 27  2  0  0  0  0
 23 28  1  0  0  0  0
 24 52  1  0  0  0  0
 24 53  1  0  0  0  0
 24 54  1  0  0  0  0
 25 55  1  0  0  0  0
 25 56  1  0  0  0  0
 25 57  1  0  0  0  0
 26 29  2  0  0  0  0
 26 58  1  0  0  0  0
 27 31  1  0  0  0  0
 27 60  1  0  0  0  0
 28 61  1  0  0  0  0
 28 62  1  0  0  0  0
 29 31  1  0  0  0  0
 29 63  1  0  0  0  0
 30 32  1  0  0  0  0
 32 33  1  0  0  0  0
 32 64  1  0  0  0  0
 32 65  1  0  0  0  0
 33 66  1  0  0  0  0
 33 67  1  0  0  0  0
 33 68  1  0  0  0  0
 34 35  1  0  0  0  0
 35 36  1  0  0  0  0
 35 69  1  0  0  0  0
 35 70  1  0  0  0  0
 36 71  1  0  0  0  0
 36 72  1  0  0  0  0
 36 73  1  0  0  0  0
M  END
