DB00221
 OpenBabel07062211533D

 38 38  0  0  1  0  0  0  0  0999 V2000
   -0.1398   -0.3753   -2.1789 O   0  0  0  0  0  0  0  0  0  0  0  0
    3.8711    2.4847    1.1434 O   0  0  0  0  0  0  0  0  0  0  0  0
    5.5816    0.4757    0.2685 O   0  0  0  0  0  0  0  0  0  0  0  0
   -2.1640   -0.5214   -0.1307 N   0  0  0  0  0  0  0  0  0  0  0  0
   -0.7324   -0.5592    0.1963 C   0  0  2  0  0  0  0  0  0  0  0  0
    0.0655    0.2039   -0.8911 C   0  0  1  0  0  0  0  0  0  0  0  0
   -0.2847   -2.0248    0.3671 C   0  0  0  0  0  0  0  0  0  0  0  0
   -2.6143    0.8505   -0.2865 C   0  0  0  0  0  0  0  0  0  0  0  0
    1.5485    0.2795   -0.5773 C   0  0  0  0  0  0  0  0  0  0  0  0
   -1.0938   -2.7813    1.4153 C   0  0  0  0  0  0  0  0  0  0  0  0
   -2.3976    1.6288    1.0081 C   0  0  0  0  0  0  0  0  0  0  0  0
   -4.0849    0.8594   -0.6916 C   0  0  0  0  0  0  0  0  0  0  0  0
    2.0271    1.3560    0.1451 C   0  0  0  0  0  0  0  0  0  0  0  0
    2.3812   -0.7293   -1.0225 C   0  0  0  0  0  0  0  0  0  0  0  0
    3.3900    1.4261    0.4333 C   0  0  0  0  0  0  0  0  0  0  0  0
    3.7443   -0.6590   -0.7345 C   0  0  0  0  0  0  0  0  0  0  0  0
    4.2487    0.4187   -0.0065 C   0  0  0  0  0  0  0  0  0  0  0  0
   -0.5525   -0.0926    1.1725 H   0  0  0  0  0  0  0  0  0  0  0  0
   -0.2336    1.2513   -0.9823 H   0  0  0  0  0  0  0  0  0  0  0  0
    0.7616   -2.0626    0.6871 H   0  0  0  0  0  0  0  0  0  0  0  0
   -0.3514   -2.5630   -0.5864 H   0  0  0  0  0  0  0  0  0  0  0  0
   -2.3422   -1.0502   -0.9834 H   0  0  0  0  0  0  0  0  0  0  0  0
   -2.1296    1.3754   -1.1131 H   0  0  0  0  0  0  0  0  0  0  0  0
   -0.6755   -3.7830    1.5590 H   0  0  0  0  0  0  0  0  0  0  0  0
   -1.0684   -2.2637    2.3795 H   0  0  0  0  0  0  0  0  0  0  0  0
   -2.1384   -2.9013    1.1125 H   0  0  0  0  0  0  0  0  0  0  0  0
   -2.9318    2.5856    0.9692 H   0  0  0  0  0  0  0  0  0  0  0  0
   -2.7809    1.0840    1.8787 H   0  0  0  0  0  0  0  0  0  0  0  0
   -1.3466    1.8761    1.1850 H   0  0  0  0  0  0  0  0  0  0  0  0
   -4.2384    0.3239   -1.6355 H   0  0  0  0  0  0  0  0  0  0  0  0
   -4.4450    1.8846   -0.8316 H   0  0  0  0  0  0  0  0  0  0  0  0
   -4.7135    0.3864    0.0715 H   0  0  0  0  0  0  0  0  0  0  0  0
    1.3550    2.1375    0.4892 H   0  0  0  0  0  0  0  0  0  0  0  0
    2.0090   -1.5781   -1.5879 H   0  0  0  0  0  0  0  0  0  0  0  0
   -1.0780   -0.2677   -2.4078 H   0  0  0  0  0  0  0  0  0  0  0  0
    4.4018   -1.4511   -1.0825 H   0  0  0  0  0  0  0  0  0  0  0  0
    3.1343    3.0808    1.3622 H   0  0  0  0  0  0  0  0  0  0  0  0
    6.0176   -0.3051   -0.1137 H   0  0  0  0  0  0  0  0  0  0  0  0
  1  6  1  0  0  0  0
  1 35  1  0  0  0  0
  2 15  1  0  0  0  0
  2 37  1  0  0  0  0
  3 17  1  0  0  0  0
  3 38  1  0  0  0  0
  4  5  1  0  0  0  0
  4  8  1  0  0  0  0
  4 22  1  0  0  0  0
  5  6  1  0  0  0  0
  5  7  1  0  0  0  0
  5 18  1  1  0  0  0
  6  9  1  0  0  0  0
  6 19  1  6  0  0  0
  7 10  1  0  0  0  0
  7 20  1  0  0  0  0
  7 21  1  0  0  0  0
  8 11  1  0  0  0  0
  8 12  1  0  0  0  0
  8 23  1  0  0  0  0
  9 13  2  0  0  0  0
  9 14  1  0  0  0  0
 10 24  1  0  0  0  0
 10 25  1  0  0  0  0
 10 26  1  0  0  0  0
 11 27  1  0  0  0  0
 11 28  1  0  0  0  0
 11 29  1  0  0  0  0
 12 30  1  0  0  0  0
 12 31  1  0  0  0  0
 12 32  1  0  0  0  0
 13 15  1  0  0  0  0
 13 33  1  0  0  0  0
 14 16  2  0  0  0  0
 14 34  1  0  0  0  0
 15 17  2  0  0  0  0
 16 17  1  0  0  0  0
 16 36  1  0  0  0  0
M  END
