DB00775
 OpenBabel07062211533D

 66 67  0  0  1  0  0  0  0  0999 V2000
    4.2609    0.5762   -0.9419 S   0  0  0  0  0  0  0  0  0  0  0  0
   -0.8090   -3.1067    0.7838 O   0  0  0  0  0  0  0  0  0  0  0  0
    3.3554    0.4261    0.1803 O   0  0  0  0  0  0  0  0  0  0  0  0
    3.7810    1.0585   -2.2229 O   0  0  0  0  0  0  0  0  0  0  0  0
    7.5166   -2.2650   -0.9630 O   0  0  0  0  0  0  0  0  0  0  0  0
    7.4396   -1.2047    1.0583 O   0  0  0  0  0  0  0  0  0  0  0  0
   -8.3979    1.6140   -0.5455 N   0  3  0  0  0  0  0  0  0  0  0  0
    5.1082   -0.8750   -1.2064 N   0  0  0  0  0  0  0  0  0  0  0  0
   -5.7778    0.6075    0.1624 C   0  0  0  0  0  0  0  0  0  0  0  0
   -6.6183    1.4408    1.1406 C   0  0  0  0  0  0  0  0  0  0  0  0
   -6.6807   -0.1184   -0.8453 C   0  0  0  0  0  0  0  0  0  0  0  0
   -7.5533    2.3919    0.4086 C   0  0  0  0  0  0  0  0  0  0  0  0
   -7.6150    0.8472   -1.5592 C   0  0  0  0  0  0  0  0  0  0  0  0
   -4.8972   -0.3872    0.9157 C   0  0  0  0  0  0  0  0  0  0  0  0
   -3.7114   -0.8317    0.0644 C   0  0  0  0  0  0  0  0  0  0  0  0
   -2.8158   -1.8011    0.8325 C   0  0  0  0  0  0  0  0  0  0  0  0
   -1.6057   -2.2203    0.0100 C   0  0  0  0  0  0  0  0  0  0  0  0
    5.4035   -1.7544   -0.0450 C   0  0  1  0  0  0  0  0  0  0  0  0
    0.5375   -3.1122    0.5268 C   0  0  0  0  0  0  0  0  0  0  0  0
    4.7429   -3.1218   -0.2737 C   0  0  0  0  0  0  0  0  0  0  0  0
    5.5876    1.6460   -0.4352 C   0  0  0  0  0  0  0  0  0  0  0  0
    3.2779   -3.1201    0.0049 C   0  0  0  0  0  0  0  0  0  0  0  0
    5.0832    3.0479   -0.1295 C   0  0  0  0  0  0  0  0  0  0  0  0
    1.4408   -3.4109    1.5470 C   0  0  0  0  0  0  0  0  0  0  0  0
    1.0044   -2.8173   -0.7541 C   0  0  0  0  0  0  0  0  0  0  0  0
    6.2272    3.9706    0.2863 C   0  0  0  0  0  0  0  0  0  0  0  0
    2.8110   -3.4149    1.2859 C   0  0  0  0  0  0  0  0  0  0  0  0
    2.3745   -2.8212   -1.0150 C   0  0  0  0  0  0  0  0  0  0  0  0
    6.9366   -1.7381    0.0304 C   0  0  0  0  0  0  0  0  0  0  0  0
    5.7229    5.3631    0.6303 C   0  0  0  0  0  0  0  0  0  0  0  0
   -5.1354    1.3071   -0.3903 H   0  0  0  0  0  0  0  0  0  0  0  0
   -5.9620    2.0207    1.8003 H   0  0  0  0  0  0  0  0  0  0  0  0
   -7.2069    0.7744    1.7845 H   0  0  0  0  0  0  0  0  0  0  0  0
   -7.2770   -0.8825   -0.3297 H   0  0  0  0  0  0  0  0  0  0  0  0
   -6.0794   -0.6404   -1.5971 H   0  0  0  0  0  0  0  0  0  0  0  0
   -8.2342    2.8967    1.1001 H   0  0  0  0  0  0  0  0  0  0  0  0
   -7.0074    3.1413   -0.1738 H   0  0  0  0  0  0  0  0  0  0  0  0
   -7.0698    1.5743   -2.1699 H   0  0  0  0  0  0  0  0  0  0  0  0
   -8.3375    0.3171   -2.1866 H   0  0  0  0  0  0  0  0  0  0  0  0
   -5.4824   -1.2559    1.2416 H   0  0  0  0  0  0  0  0  0  0  0  0
   -4.5059    0.0860    1.8256 H   0  0  0  0  0  0  0  0  0  0  0  0
   -9.0037    0.9684   -0.0197 H   0  0  0  0  0  0  0  0  0  0  0  0
   -9.0368    2.2585   -1.0313 H   0  0  0  0  0  0  0  0  0  0  0  0
   -4.0592   -1.3194   -0.8527 H   0  0  0  0  0  0  0  0  0  0  0  0
   -3.1248    0.0447   -0.2375 H   0  0  0  0  0  0  0  0  0  0  0  0
   -3.3838   -2.6928    1.1256 H   0  0  0  0  0  0  0  0  0  0  0  0
   -2.4741   -1.3421    1.7690 H   0  0  0  0  0  0  0  0  0  0  0  0
   -1.0529   -1.3110   -0.2604 H   0  0  0  0  0  0  0  0  0  0  0  0
   -1.9306   -2.7333   -0.9025 H   0  0  0  0  0  0  0  0  0  0  0  0
    5.0212   -1.3160    0.8846 H   0  0  0  0  0  0  0  0  0  0  0  0
    5.2304   -3.8680    0.3679 H   0  0  0  0  0  0  0  0  0  0  0  0
    4.9240   -3.4715   -1.2994 H   0  0  0  0  0  0  0  0  0  0  0  0
    6.3226    1.6647   -1.2461 H   0  0  0  0  0  0  0  0  0  0  0  0
    6.0436    1.2075    0.4571 H   0  0  0  0  0  0  0  0  0  0  0  0
    5.6318   -1.0319   -2.0759 H   0  0  0  0  0  0  0  0  0  0  0  0
    4.5781    3.4636   -1.0099 H   0  0  0  0  0  0  0  0  0  0  0  0
    4.3340    3.0060    0.6705 H   0  0  0  0  0  0  0  0  0  0  0  0
    1.0828   -3.6401    2.5469 H   0  0  0  0  0  0  0  0  0  0  0  0
    0.3344   -2.6063   -1.5822 H   0  0  0  0  0  0  0  0  0  0  0  0
    6.9612    4.0425   -0.5247 H   0  0  0  0  0  0  0  0  0  0  0  0
    6.7456    3.5524    1.1571 H   0  0  0  0  0  0  0  0  0  0  0  0
    3.5048   -3.6461    2.0899 H   0  0  0  0  0  0  0  0  0  0  0  0
    2.7243   -2.5961   -2.0191 H   0  0  0  0  0  0  0  0  0  0  0  0
    5.0120    5.3288    1.4620 H   0  0  0  0  0  0  0  0  0  0  0  0
    6.5581    6.0068    0.9237 H   0  0  0  0  0  0  0  0  0  0  0  0
    5.2249    5.8232   -0.2291 H   0  0  0  0  0  0  0  0  0  0  0  0
  1  3  2  0  0  0  0
  1  4  2  0  0  0  0
  1  8  1  0  0  0  0
  1 21  1  0  0  0  0
  2 17  1  0  0  0  0
  2 19  1  0  0  0  0
  5 29  2  0  0  0  0
  6 29  1  0  0  0  0
  7 12  1  0  0  0  0
  7 13  1  0  0  0  0
  7 42  1  0  0  0  0
  7 43  1  0  0  0  0
  8 18  1  0  0  0  0
  8 55  1  0  0  0  0
  9 10  1  0  0  0  0
  9 11  1  0  0  0  0
  9 14  1  0  0  0  0
  9 31  1  0  0  0  0
 10 12  1  0  0  0  0
 10 32  1  0  0  0  0
 10 33  1  0  0  0  0
 11 13  1  0  0  0  0
 11 34  1  0  0  0  0
 11 35  1  0  0  0  0
 12 36  1  0  0  0  0
 12 37  1  0  0  0  0
 13 38  1  0  0  0  0
 13 39  1  0  0  0  0
 14 15  1  0  0  0  0
 14 40  1  0  0  0  0
 14 41  1  0  0  0  0
 15 16  1  0  0  0  0
 15 44  1  0  0  0  0
 15 45  1  0  0  0  0
 16 17  1  0  0  0  0
 16 46  1  0  0  0  0
 16 47  1  0  0  0  0
 17 48  1  0  0  0  0
 17 49  1  0  0  0  0
 18 20  1  0  0  0  0
 18 29  1  0  0  0  0
 18 50  1  1  0  0  0
 19 24  2  0  0  0  0
 19 25  1  0  0  0  0
 20 22  1  0  0  0  0
 20 51  1  0  0  0  0
 20 52  1  0  0  0  0
 21 23  1  0  0  0  0
 21 53  1  0  0  0  0
 21 54  1  0  0  0  0
 22 27  2  0  0  0  0
 22 28  1  0  0  0  0
 23 26  1  0  0  0  0
 23 56  1  0  0  0  0
 23 57  1  0  0  0  0
 24 27  1  0  0  0  0
 24 58  1  0  0  0  0
 25 28  2  0  0  0  0
 25 59  1  0  0  0  0
 26 30  1  0  0  0  0
 26 60  1  0  0  0  0
 26 61  1  0  0  0  0
 27 62  1  0  0  0  0
 28 63  1  0  0  0  0
 30 64  1  0  0  0  0
 30 65  1  0  0  0  0
 30 66  1  0  0  0  0
M  CHG  1   7   1
M  END
