DB00727
 OpenBabel07062211533D

 20 19  0  0  0  0  0  0  0  0999 V2000
   -0.0098   -1.4471   -0.6693 O   0  0  0  0  0  0  0  0  0  0  0  0
   -2.4847   -0.3801   -0.0182 O   0  0  0  0  0  0  0  0  0  0  0  0
    1.4709    0.9241   -0.5729 O   0  0  0  0  0  0  0  0  0  0  0  0
    1.2596   -2.6736    0.6566 O   0  0  0  0  0  0  0  0  0  0  0  0
    1.6095   -2.7841   -1.5428 O   0  0  0  0  0  0  0  0  0  0  0  0
   -3.3856    1.6180   -0.3191 O   0  0  0  0  0  0  0  0  0  0  0  0
    3.2482    1.5409    0.5909 O   0  0  0  0  0  0  0  0  0  0  0  0
   -4.7061   -0.1733   -0.4577 O   0  0  0  0  0  0  0  0  0  0  0  0
    3.0158    2.3209   -1.4850 O   0  0  0  0  0  0  0  0  0  0  0  0
    1.0467   -2.3834   -0.5213 N   0  0  0  0  0  0  0  0  0  0  0  0
   -3.6338    0.4120   -0.2896 N   0  0  0  0  0  0  0  0  0  0  0  0
    2.6820    1.6645   -0.4959 N   0  0  0  0  0  0  0  0  0  0  0  0
   -0.1378   -0.5599    0.4441 C   0  0  0  0  0  0  0  0  0  0  0  0
   -1.2979    0.3855    0.1608 C   0  0  0  0  0  0  0  0  0  0  0  0
    1.1719    0.2009    0.6167 C   0  0  0  0  0  0  0  0  0  0  0  0
   -0.3896   -1.1331    1.3461 H   0  0  0  0  0  0  0  0  0  0  0  0
   -1.0964    0.9442   -0.7620 H   0  0  0  0  0  0  0  0  0  0  0  0
   -1.4133    1.0779    1.0041 H   0  0  0  0  0  0  0  0  0  0  0  0
    2.0068   -0.4609    0.8659 H   0  0  0  0  0  0  0  0  0  0  0  0
    1.0436    0.9066    1.4488 H   0  0  0  0  0  0  0  0  0  0  0  0
  1 10  1  0  0  0  0
  1 13  1  0  0  0  0
  2 11  1  0  0  0  0
  2 14  1  0  0  0  0
  3 12  1  0  0  0  0
  3 15  1  0  0  0  0
  4 10  1  0  0  0  0
  5 10  2  0  0  0  0
  6 11  1  0  0  0  0
  7 12  1  0  0  0  0
  8 11  2  0  0  0  0
  9 12  2  0  0  0  0
 13 14  1  0  0  0  0
 13 15  1  0  0  0  0
 13 16  1  0  0  0  0
 14 17  1  0  0  0  0
 14 18  1  0  0  0  0
 15 19  1  0  0  0  0
 15 20  1  0  0  0  0
M  END
