DB00814
 OpenBabel07062211533D

 36 38  0  0  0  0  0  0  0  0999 V2000
    1.7612   -1.6760    0.6856 S   0  0  0  0  0  0  0  0  0  0  0  0
   -4.1015   -1.0165    0.5273 S   0  0  0  0  0  0  0  0  0  0  0  0
    1.3137   -1.4953    2.0535 O   0  0  0  0  0  0  0  0  0  0  0  0
    2.0562   -2.9953    0.1614 O   0  0  0  0  0  0  0  0  0  0  0  0
    1.6332    2.6282    0.4634 O   0  0  0  0  0  0  0  0  0  0  0  0
   -0.9414    2.2514   -0.6464 O   0  0  0  0  0  0  0  0  0  0  0  0
    0.6921   -0.8564   -0.3954 N   0  0  0  0  0  0  0  0  0  0  0  0
   -1.7636    0.1649    0.0726 N   0  0  0  0  0  0  0  0  0  0  0  0
   -3.8377    1.4196   -0.2964 N   0  0  0  0  0  0  0  0  0  0  0  0
    3.2008   -0.6848    0.5062 C   0  0  0  0  0  0  0  0  0  0  0  0
    3.0183    0.6836    0.2740 C   0  0  0  0  0  0  0  0  0  0  0  0
    0.5625    0.5518   -0.1140 C   0  0  0  0  0  0  0  0  0  0  0  0
    1.6590    1.2716    0.1989 C   0  0  0  0  0  0  0  0  0  0  0  0
    4.4616   -1.2749    0.5776 C   0  0  0  0  0  0  0  0  0  0  0  0
    0.8149   -1.1946   -1.8433 C   0  0  0  0  0  0  0  0  0  0  0  0
    4.1703    1.4698    0.1281 C   0  0  0  0  0  0  0  0  0  0  0  0
   -0.7909    1.0945   -0.2628 C   0  0  0  0  0  0  0  0  0  0  0  0
    5.5884   -0.4734    0.4253 C   0  0  0  0  0  0  0  0  0  0  0  0
    5.4442    0.8953    0.2022 C   0  0  0  0  0  0  0  0  0  0  0  0
   -3.1685    0.3417    0.0480 C   0  0  0  0  0  0  0  0  0  0  0  0
   -5.5269   -0.1014    0.2584 C   0  0  0  0  0  0  0  0  0  0  0  0
   -5.1895    1.1636   -0.1754 C   0  0  0  0  0  0  0  0  0  0  0  0
   -6.8567   -0.6956    0.4950 C   0  0  0  0  0  0  0  0  0  0  0  0
    4.5817   -2.3387    0.7565 H   0  0  0  0  0  0  0  0  0  0  0  0
    0.0390   -0.6819   -2.4215 H   0  0  0  0  0  0  0  0  0  0  0  0
    1.7941   -0.9021   -2.2334 H   0  0  0  0  0  0  0  0  0  0  0  0
    0.6677   -2.2689   -1.9877 H   0  0  0  0  0  0  0  0  0  0  0  0
    4.1006    2.5394   -0.0561 H   0  0  0  0  0  0  0  0  0  0  0  0
    6.5801   -0.9126    0.4810 H   0  0  0  0  0  0  0  0  0  0  0  0
    6.3253    1.5197    0.0830 H   0  0  0  0  0  0  0  0  0  0  0  0
   -1.4725   -0.7614    0.3767 H   0  0  0  0  0  0  0  0  0  0  0  0
    0.7148    2.9403    0.4062 H   0  0  0  0  0  0  0  0  0  0  0  0
   -5.8950    1.9467   -0.4196 H   0  0  0  0  0  0  0  0  0  0  0  0
   -7.0140   -1.5715   -0.1432 H   0  0  0  0  0  0  0  0  0  0  0  0
   -6.9682   -1.0037    1.5399 H   0  0  0  0  0  0  0  0  0  0  0  0
   -7.6532    0.0228    0.2743 H   0  0  0  0  0  0  0  0  0  0  0  0
  1  3  2  0  0  0  0
  1  4  2  0  0  0  0
  1  7  1  0  0  0  0
  1 10  1  0  0  0  0
  2 20  1  0  0  0  0
  2 21  1  0  0  0  0
  5 13  1  0  0  0  0
  5 32  1  0  0  0  0
  6 17  2  0  0  0  0
  7 12  1  0  0  0  0
  7 15  1  0  0  0  0
  8 17  1  0  0  0  0
  8 20  1  0  0  0  0
  8 31  1  0  0  0  0
  9 20  2  0  0  0  0
  9 22  1  0  0  0  0
 10 11  2  0  0  0  0
 10 14  1  0  0  0  0
 11 13  1  0  0  0  0
 11 16  1  0  0  0  0
 12 13  2  0  0  0  0
 12 17  1  0  0  0  0
 14 18  2  0  0  0  0
 14 24  1  0  0  0  0
 15 25  1  0  0  0  0
 15 26  1  0  0  0  0
 15 27  1  0  0  0  0
 16 19  2  0  0  0  0
 16 28  1  0  0  0  0
 18 19  1  0  0  0  0
 18 29  1  0  0  0  0
 19 30  1  0  0  0  0
 21 22  2  0  0  0  0
 21 23  1  0  0  0  0
 22 33  1  0  0  0  0
 23 34  1  0  0  0  0
 23 35  1  0  0  0  0
 23 36  1  0  0  0  0
M  END
