DB00933
 OpenBabel07062211533D

 52 55  0  0  1  0  0  0  0  0999 V2000
   -4.3549   -2.0779   -0.4945 S   0  0  0  0  0  0  0  0  0  0  0  0
   -2.6858    4.0570   -0.7903 S   0  0  1  0  0  0  0  0  0  0  0  0
   -1.2778    4.1168   -1.3137 O   0  0  0  0  0  0  0  0  0  0  0  0
    2.9369    0.8860    0.8531 N   0  0  0  0  0  0  0  0  0  0  0  0
   -1.4303   -1.0264   -0.5667 N   0  0  0  0  0  0  0  0  0  0  0  0
    2.1656    0.2857   -0.2601 C   0  0  1  0  0  0  0  0  0  0  0  0
    2.8676   -0.9886   -0.7715 C   0  0  0  0  0  0  0  0  0  0  0  0
    0.7332   -0.0885    0.1464 C   0  0  0  0  0  0  0  0  0  0  0  0
    4.3092   -0.7182   -1.1824 C   0  0  0  0  0  0  0  0  0  0  0  0
    4.3147    1.2015    0.4367 C   0  0  0  0  0  0  0  0  0  0  0  0
    5.0597   -0.0404   -0.0469 C   0  0  0  0  0  0  0  0  0  0  0  0
   -0.0851   -0.6433   -1.0148 C   0  0  0  0  0  0  0  0  0  0  0  0
    2.3059    2.0978    1.3840 C   0  0  0  0  0  0  0  0  0  0  0  0
   -2.4418   -0.0339   -0.6149 C   0  0  0  0  0  0  0  0  0  0  0  0
   -1.5996   -2.3384   -0.0565 C   0  0  0  0  0  0  0  0  0  0  0  0
   -3.8057   -0.3844   -0.5653 C   0  0  0  0  0  0  0  0  0  0  0  0
   -2.8799   -2.9170    0.0488 C   0  0  0  0  0  0  0  0  0  0  0  0
   -2.1360    1.3431   -0.6779 C   0  0  0  0  0  0  0  0  0  0  0  0
   -0.5084   -3.1093    0.4011 C   0  0  0  0  0  0  0  0  0  0  0  0
   -4.8048    0.6044   -0.6054 C   0  0  0  0  0  0  0  0  0  0  0  0
   -3.1329    2.3220   -0.7125 C   0  0  0  0  0  0  0  0  0  0  0  0
   -3.0429   -4.2155    0.5635 C   0  0  0  0  0  0  0  0  0  0  0  0
   -4.4688    1.9521   -0.6794 C   0  0  0  0  0  0  0  0  0  0  0  0
   -0.6766   -4.3975    0.9165 C   0  0  0  0  0  0  0  0  0  0  0  0
   -1.9448   -4.9523    0.9950 C   0  0  0  0  0  0  0  0  0  0  0  0
   -2.6027    4.3608    0.9947 C   0  0  0  0  0  0  0  0  0  0  0  0
    2.1126    1.0084   -1.0870 H   0  0  0  0  0  0  0  0  0  0  0  0
    2.3713   -1.3990   -1.6547 H   0  0  0  0  0  0  0  0  0  0  0  0
    2.8524   -1.7668    0.0026 H   0  0  0  0  0  0  0  0  0  0  0  0
    0.7709   -0.7837    0.9919 H   0  0  0  0  0  0  0  0  0  0  0  0
    0.2239    0.7881    0.5508 H   0  0  0  0  0  0  0  0  0  0  0  0
    4.3251   -0.0750   -2.0708 H   0  0  0  0  0  0  0  0  0  0  0  0
    4.8060   -1.6561   -1.4542 H   0  0  0  0  0  0  0  0  0  0  0  0
    4.8734    1.6154    1.2853 H   0  0  0  0  0  0  0  0  0  0  0  0
    4.3151    1.9632   -0.3545 H   0  0  0  0  0  0  0  0  0  0  0  0
    5.1825   -0.7447    0.7857 H   0  0  0  0  0  0  0  0  0  0  0  0
    6.0655    0.2375   -0.3816 H   0  0  0  0  0  0  0  0  0  0  0  0
   -0.1302    0.0857   -1.8350 H   0  0  0  0  0  0  0  0  0  0  0  0
    0.3820   -1.5134   -1.4853 H   0  0  0  0  0  0  0  0  0  0  0  0
    2.0907    2.8304    0.5979 H   0  0  0  0  0  0  0  0  0  0  0  0
    2.9538    2.5789    2.1266 H   0  0  0  0  0  0  0  0  0  0  0  0
    1.3808    1.8670    1.9206 H   0  0  0  0  0  0  0  0  0  0  0  0
   -1.1086    1.6855   -0.7195 H   0  0  0  0  0  0  0  0  0  0  0  0
    0.5155   -2.7566    0.3537 H   0  0  0  0  0  0  0  0  0  0  0  0
   -5.8586    0.3338   -0.5786 H   0  0  0  0  0  0  0  0  0  0  0  0
   -4.0302   -4.6675    0.6340 H   0  0  0  0  0  0  0  0  0  0  0  0
   -5.2592    2.6971   -0.7060 H   0  0  0  0  0  0  0  0  0  0  0  0
    0.1874   -4.9648    1.2501 H   0  0  0  0  0  0  0  0  0  0  0  0
   -2.0807   -5.9538    1.3916 H   0  0  0  0  0  0  0  0  0  0  0  0
   -3.5913    4.2167    1.4373 H   0  0  0  0  0  0  0  0  0  0  0  0
   -2.2839    5.3936    1.1546 H   0  0  0  0  0  0  0  0  0  0  0  0
   -1.8803    3.6842    1.4576 H   0  0  0  0  0  0  0  0  0  0  0  0
  1 16  1  0  0  0  0
  1 17  1  0  0  0  0
  2  3  2  6  0  0  0
  2 21  1  0  0  0  0
  2 26  1  0  0  0  0
  4  6  1  0  0  0  0
  4 10  1  0  0  0  0
  4 13  1  0  0  0  0
  5 12  1  0  0  0  0
  5 14  1  0  0  0  0
  5 15  1  0  0  0  0
  6  7  1  0  0  0  0
  6  8  1  0  0  0  0
  6 27  1  6  0  0  0
  7  9  1  0  0  0  0
  7 28  1  0  0  0  0
  7 29  1  0  0  0  0
  8 12  1  0  0  0  0
  8 30  1  0  0  0  0
  8 31  1  0  0  0  0
  9 11  1  0  0  0  0
  9 32  1  0  0  0  0
  9 33  1  0  0  0  0
 10 11  1  0  0  0  0
 10 34  1  0  0  0  0
 10 35  1  0  0  0  0
 11 36  1  0  0  0  0
 11 37  1  0  0  0  0
 12 38  1  0  0  0  0
 12 39  1  0  0  0  0
 13 40  1  0  0  0  0
 13 41  1  0  0  0  0
 13 42  1  0  0  0  0
 14 16  2  0  0  0  0
 14 18  1  0  0  0  0
 15 17  2  0  0  0  0
 15 19  1  0  0  0  0
 16 20  1  0  0  0  0
 17 22  1  0  0  0  0
 18 21  2  0  0  0  0
 18 43  1  0  0  0  0
 19 24  2  0  0  0  0
 19 44  1  0  0  0  0
 20 23  2  0  0  0  0
 20 45  1  0  0  0  0
 21 23  1  0  0  0  0
 22 25  2  0  0  0  0
 22 46  1  0  0  0  0
 23 47  1  0  0  0  0
 24 25  1  0  0  0  0
 24 48  1  0  0  0  0
 25 49  1  0  0  0  0
 26 50  1  0  0  0  0
 26 51  1  0  0  0  0
 26 52  1  0  0  0  0
M  END
