DB00233
 OpenBabel07062211533D

 18 18  0  0  0  0  0  0  0  0999 V2000
   -0.9534   -2.3444    0.0453 O   0  0  0  0  0  0  0  0  0  0  0  0
   -2.9802    1.1862    0.4382 O   0  0  0  0  0  0  0  0  0  0  0  0
   -3.1605   -0.8268   -0.6019 O   0  0  0  0  0  0  0  0  0  0  0  0
    3.2002    0.0768    0.0473 N   0  0  0  0  0  0  0  0  0  0  0  0
   -0.9980    0.0507   -0.0755 C   0  0  0  0  0  0  0  0  0  0  0  0
   -0.2952   -1.1516    0.0047 C   0  0  0  0  0  0  0  0  0  0  0  0
    1.7905    0.0678    0.0061 C   0  0  0  0  0  0  0  0  0  0  0  0
    1.0991   -1.1431    0.0455 C   0  0  0  0  0  0  0  0  0  0  0  0
   -0.3066    1.2614   -0.1149 C   0  0  0  0  0  0  0  0  0  0  0  0
    1.0875    1.2700   -0.0740 C   0  0  0  0  0  0  0  0  0  0  0  0
   -2.4538    0.0630   -0.1206 C   0  0  0  0  0  0  0  0  0  0  0  0
    1.6418   -2.0835    0.1082 H   0  0  0  0  0  0  0  0  0  0  0  0
   -0.8251    2.2136   -0.1903 H   0  0  0  0  0  0  0  0  0  0  0  0
    1.6153    2.2198   -0.1082 H   0  0  0  0  0  0  0  0  0  0  0  0
    3.7020    0.9544    0.0195 H   0  0  0  0  0  0  0  0  0  0  0  0
    3.7106   -0.7945    0.1059 H   0  0  0  0  0  0  0  0  0  0  0  0
   -1.9136   -2.2059    0.0608 H   0  0  0  0  0  0  0  0  0  0  0  0
   -3.9606    1.1861    0.4037 H   0  0  0  0  0  0  0  0  0  0  0  0
  1  6  1  0  0  0  0
  1 17  1  0  0  0  0
  2 11  1  0  0  0  0
  2 18  1  0  0  0  0
  3 11  2  0  0  0  0
  4  7  1  0  0  0  0
  4 15  1  0  0  0  0
  4 16  1  0  0  0  0
  5  6  2  0  0  0  0
  5  9  1  0  0  0  0
  5 11  1  0  0  0  0
  6  8  1  0  0  0  0
  7  8  2  0  0  0  0
  7 10  1  0  0  0  0
  8 12  1  0  0  0  0
  9 10  2  0  0  0  0
  9 13  1  0  0  0  0
 10 14  1  0  0  0  0
M  END
