DB00861
 OpenBabel07062211533D

 26 27  0  0  0  0  0  0  0  0999 V2000
    1.4581    0.3887    2.3623 F   0  0  0  0  0  0  0  0  0  0  0  0
    5.4650   -0.5205    0.0206 F   0  0  0  0  0  0  0  0  0  0  0  0
   -4.1295    1.0861   -0.0583 O   0  0  0  0  0  0  0  0  0  0  0  0
   -2.6815   -2.7316   -0.3119 O   0  0  0  0  0  0  0  0  0  0  0  0
   -4.3285   -1.5519    0.7186 O   0  0  0  0  0  0  0  0  0  0  0  0
   -0.0364    0.3875   -0.0168 C   0  0  0  0  0  0  0  0  0  0  0  0
    1.3910    0.1519   -0.0032 C   0  0  0  0  0  0  0  0  0  0  0  0
   -0.9217   -0.6841    0.0993 C   0  0  0  0  0  0  0  0  0  0  0  0
   -0.5271    1.6867   -0.1461 C   0  0  0  0  0  0  0  0  0  0  0  0
   -2.2979   -0.4563    0.0860 C   0  0  0  0  0  0  0  0  0  0  0  0
    2.0920    0.1607    1.2027 C   0  0  0  0  0  0  0  0  0  0  0  0
    2.0662   -0.0842   -1.2008 C   0  0  0  0  0  0  0  0  0  0  0  0
   -2.7885    0.8428   -0.0433 C   0  0  0  0  0  0  0  0  0  0  0  0
   -1.9032    1.9144   -0.1593 C   0  0  0  0  0  0  0  0  0  0  0  0
    3.4681   -0.0666    1.2110 C   0  0  0  0  0  0  0  0  0  0  0  0
    3.4422   -0.3114   -1.1923 C   0  0  0  0  0  0  0  0  0  0  0  0
    4.1433   -0.3026    0.0135 C   0  0  0  0  0  0  0  0  0  0  0  0
   -3.2054   -1.5888    0.2084 C   0  0  0  0  0  0  0  0  0  0  0  0
   -0.5245   -1.6909    0.2130 H   0  0  0  0  0  0  0  0  0  0  0  0
    0.1492    2.5334   -0.2376 H   0  0  0  0  0  0  0  0  0  0  0  0
    1.5352   -0.0946   -2.1497 H   0  0  0  0  0  0  0  0  0  0  0  0
   -2.2714    2.9319   -0.2606 H   0  0  0  0  0  0  0  0  0  0  0  0
    4.0141   -0.0593    2.1496 H   0  0  0  0  0  0  0  0  0  0  0  0
    3.9684   -0.4952   -2.1245 H   0  0  0  0  0  0  0  0  0  0  0  0
   -4.2780    2.0425   -0.1550 H   0  0  0  0  0  0  0  0  0  0  0  0
   -3.2992   -3.4888   -0.2254 H   0  0  0  0  0  0  0  0  0  0  0  0
  1 11  1  0  0  0  0
  2 17  1  0  0  0  0
  3 13  1  0  0  0  0
  3 25  1  0  0  0  0
  4 18  1  0  0  0  0
  4 26  1  0  0  0  0
  5 18  2  0  0  0  0
  6  7  1  0  0  0  0
  6  8  2  0  0  0  0
  6  9  1  0  0  0  0
  7 11  2  0  0  0  0
  7 12  1  0  0  0  0
  8 10  1  0  0  0  0
  8 19  1  0  0  0  0
  9 14  2  0  0  0  0
  9 20  1  0  0  0  0
 10 13  2  0  0  0  0
 10 18  1  0  0  0  0
 11 15  1  0  0  0  0
 12 16  2  0  0  0  0
 12 21  1  0  0  0  0
 13 14  1  0  0  0  0
 14 22  1  0  0  0  0
 15 17  2  0  0  0  0
 15 23  1  0  0  0  0
 16 17  1  0  0  0  0
 16 24  1  0  0  0  0
M  END
