DB00137
 OpenBabel07062211533D

 98 99  0  0  1  0  0  0  0  0999 V2000
   14.1948    2.0225    1.3464 O   0  0  0  0  0  0  0  0  0  0  0  0
  -15.0286   -0.8868    0.5013 O   0  0  0  0  0  0  0  0  0  0  0  0
   11.9643   -0.3590    1.1440 C   0  0  0  0  0  0  0  0  0  0  0  0
   11.1075    0.0278   -0.1119 C   0  0  2  0  0  0  0  0  0  0  0  0
   12.1629    0.8916    2.0394 C   0  0  0  0  0  0  0  0  0  0  0  0
   12.7706    2.0902    1.2966 C   0  0  2  0  0  0  0  0  0  0  0  0
   11.6238    1.2864   -0.7953 C   0  0  0  0  0  0  0  0  0  0  0  0
  -11.4334   -0.4263    1.6310 C   0  0  0  0  0  0  0  0  0  0  0  0
   11.2878   -1.4675    1.9814 C   0  0  0  0  0  0  0  0  0  0  0  0
   13.3326   -0.9232    0.6882 C   0  0  0  0  0  0  0  0  0  0  0  0
  -12.8521   -1.0446    1.5198 C   0  0  0  0  0  0  0  0  0  0  0  0
   12.3696    2.1973   -0.1442 C   0  0  0  0  0  0  0  0  0  0  0  0
  -13.7472   -0.2682    0.5672 C   0  0  1  0  0  0  0  0  0  0  0  0
  -10.8695   -0.0442    0.2423 C   0  0  0  0  0  0  0  0  0  0  0  0
    9.6424    0.1949    0.1968 C   0  0  0  0  0  0  0  0  0  0  0  0
  -13.1383   -0.2659   -0.8284 C   0  0  0  0  0  0  0  0  0  0  0  0
  -11.6476   -0.0008   -0.8686 C   0  0  0  0  0  0  0  0  0  0  0  0
  -10.5595   -1.4876    2.3428 C   0  0  0  0  0  0  0  0  0  0  0  0
  -11.5043    0.8327    2.5252 C   0  0  0  0  0  0  0  0  0  0  0  0
   11.2737    1.4588   -2.2475 C   0  0  0  0  0  0  0  0  0  0  0  0
    8.6794   -0.5698   -0.3427 C   0  0  0  0  0  0  0  0  0  0  0  0
   -9.4553    0.2909    0.2096 C   0  0  0  0  0  0  0  0  0  0  0  0
  -11.1715    0.3098   -2.2689 C   0  0  0  0  0  0  0  0  0  0  0  0
    7.2374   -0.4733   -0.0961 C   0  0  0  0  0  0  0  0  0  0  0  0
   -8.9564    1.3061   -0.5108 C   0  0  0  0  0  0  0  0  0  0  0  0
    6.7713    0.5989    0.8576 C   0  0  0  0  0  0  0  0  0  0  0  0
   -7.5450    1.6522   -0.5830 C   0  0  0  0  0  0  0  0  0  0  0  0
    6.4205   -1.3376   -0.7366 C   0  0  0  0  0  0  0  0  0  0  0  0
   -7.2801    3.1340   -0.5394 C   0  0  0  0  0  0  0  0  0  0  0  0
   -6.5250    0.7743   -0.6556 C   0  0  0  0  0  0  0  0  0  0  0  0
    4.9777   -1.4257   -0.6394 C   0  0  0  0  0  0  0  0  0  0  0  0
   -5.1047    1.0483   -0.7296 C   0  0  0  0  0  0  0  0  0  0  0  0
    4.2540   -2.3276   -1.3233 C   0  0  0  0  0  0  0  0  0  0  0  0
    2.8057   -2.4550   -1.2377 C   0  0  0  0  0  0  0  0  0  0  0  0
   -4.0897    0.1701   -0.8018 C   0  0  0  0  0  0  0  0  0  0  0  0
   -2.6559    0.4397   -0.8767 C   0  0  0  0  0  0  0  0  0  0  0  0
    2.3221   -3.8810   -1.2557 C   0  0  0  0  0  0  0  0  0  0  0  0
    1.9307   -1.4313   -1.1696 C   0  0  0  0  0  0  0  0  0  0  0  0
   -1.7577   -0.5634   -0.9447 C   0  0  0  0  0  0  0  0  0  0  0  0
   -2.3295    1.9089   -0.8247 C   0  0  0  0  0  0  0  0  0  0  0  0
    0.4865   -1.5228   -1.0837 C   0  0  0  0  0  0  0  0  0  0  0  0
   -0.3156   -0.4480   -1.0194 C   0  0  0  0  0  0  0  0  0  0  0  0
   11.2218   -0.7988   -0.8289 H   0  0  0  0  0  0  0  0  0  0  0  0
   12.7925    0.6340    2.9010 H   0  0  0  0  0  0  0  0  0  0  0  0
   11.1899    1.1963    2.4467 H   0  0  0  0  0  0  0  0  0  0  0  0
   12.4792    3.0064    1.8229 H   0  0  0  0  0  0  0  0  0  0  0  0
   10.3538   -1.1251    2.4397 H   0  0  0  0  0  0  0  0  0  0  0  0
   11.0613   -2.3448    1.3651 H   0  0  0  0  0  0  0  0  0  0  0  0
   11.9414   -1.7952    2.7983 H   0  0  0  0  0  0  0  0  0  0  0  0
   13.8737   -0.2442    0.0235 H   0  0  0  0  0  0  0  0  0  0  0  0
   13.9789   -1.1278    1.5492 H   0  0  0  0  0  0  0  0  0  0  0  0
   13.2018   -1.8657    0.1434 H   0  0  0  0  0  0  0  0  0  0  0  0
  -12.7883   -2.0860    1.1712 H   0  0  0  0  0  0  0  0  0  0  0  0
  -13.3285   -1.1070    2.5074 H   0  0  0  0  0  0  0  0  0  0  0  0
   12.7200    3.0783   -0.6771 H   0  0  0  0  0  0  0  0  0  0  0  0
  -13.8953    0.7596    0.9161 H   0  0  0  0  0  0  0  0  0  0  0  0
    9.3830    0.9882    0.8932 H   0  0  0  0  0  0  0  0  0  0  0  0
  -13.6664    0.4893   -1.4258 H   0  0  0  0  0  0  0  0  0  0  0  0
  -13.3370   -1.2266   -1.3228 H   0  0  0  0  0  0  0  0  0  0  0  0
   -9.5957   -1.0823    2.6691 H   0  0  0  0  0  0  0  0  0  0  0  0
  -10.3656   -2.3471    1.6906 H   0  0  0  0  0  0  0  0  0  0  0  0
  -11.0580   -1.8627    3.2450 H   0  0  0  0  0  0  0  0  0  0  0  0
  -12.0848    1.6343    2.0559 H   0  0  0  0  0  0  0  0  0  0  0  0
  -10.5053    1.2339    2.7326 H   0  0  0  0  0  0  0  0  0  0  0  0
  -11.9683    0.6054    3.4919 H   0  0  0  0  0  0  0  0  0  0  0  0
   10.1892    1.5259   -2.3788 H   0  0  0  0  0  0  0  0  0  0  0  0
   11.6433    0.6085   -2.8298 H   0  0  0  0  0  0  0  0  0  0  0  0
   11.7146    2.3666   -2.6728 H   0  0  0  0  0  0  0  0  0  0  0  0
   14.5473    2.8353    0.9449 H   0  0  0  0  0  0  0  0  0  0  0  0
   -8.7803   -0.3489    0.7685 H   0  0  0  0  0  0  0  0  0  0  0  0
    8.9884   -1.3503   -1.0371 H   0  0  0  0  0  0  0  0  0  0  0  0
  -11.3467    1.3625   -2.5117 H   0  0  0  0  0  0  0  0  0  0  0  0
  -10.1223    0.0568   -2.4404 H   0  0  0  0  0  0  0  0  0  0  0  0
  -11.7298   -0.2935   -2.9953 H   0  0  0  0  0  0  0  0  0  0  0  0
  -15.4030   -0.8806    1.3988 H   0  0  0  0  0  0  0  0  0  0  0  0
   -9.6127    1.9929   -1.0395 H   0  0  0  0  0  0  0  0  0  0  0  0
    5.6887    0.6293    0.9949 H   0  0  0  0  0  0  0  0  0  0  0  0
    7.2081    0.4442    1.8507 H   0  0  0  0  0  0  0  0  0  0  0  0
    7.0663    1.5898    0.4942 H   0  0  0  0  0  0  0  0  0  0  0  0
    6.8668   -2.0707   -1.4097 H   0  0  0  0  0  0  0  0  0  0  0  0
   -6.3931    3.3878    0.0493 H   0  0  0  0  0  0  0  0  0  0  0  0
   -7.1620    3.5299   -1.5537 H   0  0  0  0  0  0  0  0  0  0  0  0
   -8.1085    3.6748   -0.0656 H   0  0  0  0  0  0  0  0  0  0  0  0
   -6.7660   -0.2887   -0.6789 H   0  0  0  0  0  0  0  0  0  0  0  0
    4.4677   -0.7377    0.0259 H   0  0  0  0  0  0  0  0  0  0  0  0
   -4.8595    2.1060   -0.7412 H   0  0  0  0  0  0  0  0  0  0  0  0
    4.7516   -3.0381   -1.9808 H   0  0  0  0  0  0  0  0  0  0  0  0
   -4.3542   -0.8879   -0.8023 H   0  0  0  0  0  0  0  0  0  0  0  0
    2.0041   -4.1642   -2.2648 H   0  0  0  0  0  0  0  0  0  0  0  0
    1.4961   -4.0515   -0.5580 H   0  0  0  0  0  0  0  0  0  0  0  0
    3.1125   -4.5771   -0.9494 H   0  0  0  0  0  0  0  0  0  0  0  0
    2.3246   -0.4153   -1.1797 H   0  0  0  0  0  0  0  0  0  0  0  0
   -2.1337   -1.5868   -0.9561 H   0  0  0  0  0  0  0  0  0  0  0  0
   -2.7007    2.3638    0.1009 H   0  0  0  0  0  0  0  0  0  0  0  0
   -1.2561    2.1118   -0.8496 H   0  0  0  0  0  0  0  0  0  0  0  0
   -2.7585    2.4369   -1.6841 H   0  0  0  0  0  0  0  0  0  0  0  0
    0.0394   -2.5124   -1.0868 H   0  0  0  0  0  0  0  0  0  0  0  0
    0.1257    0.5428   -1.0246 H   0  0  0  0  0  0  0  0  0  0  0  0
  1  6  1  0  0  0  0
  1 69  1  0  0  0  0
  2 13  1  0  0  0  0
  2 75  1  0  0  0  0
  3  4  1  0  0  0  0
  3  5  1  0  0  0  0
  3  9  1  0  0  0  0
  3 10  1  0  0  0  0
  4  7  1  0  0  0  0
  4 15  1  0  0  0  0
  4 43  1  6  0  0  0
  5  6  1  0  0  0  0
  5 44  1  0  0  0  0
  5 45  1  0  0  0  0
  6 12  1  0  0  0  0
  6 46  1  1  0  0  0
  7 12  2  0  0  0  0
  7 20  1  0  0  0  0
  8 11  1  0  0  0  0
  8 14  1  0  0  0  0
  8 18  1  0  0  0  0
  8 19  1  0  0  0  0
  9 47  1  0  0  0  0
  9 48  1  0  0  0  0
  9 49  1  0  0  0  0
 10 50  1  0  0  0  0
 10 51  1  0  0  0  0
 10 52  1  0  0  0  0
 11 13  1  0  0  0  0
 11 53  1  0  0  0  0
 11 54  1  0  0  0  0
 12 55  1  0  0  0  0
 13 16  1  0  0  0  0
 13 56  1  1  0  0  0
 14 17  2  0  0  0  0
 14 22  1  0  0  0  0
 15 21  2  0  0  0  0
 15 57  1  0  0  0  0
 16 17  1  0  0  0  0
 16 58  1  0  0  0  0
 16 59  1  0  0  0  0
 17 23  1  0  0  0  0
 18 60  1  0  0  0  0
 18 61  1  0  0  0  0
 18 62  1  0  0  0  0
 19 63  1  0  0  0  0
 19 64  1  0  0  0  0
 19 65  1  0  0  0  0
 20 66  1  0  0  0  0
 20 67  1  0  0  0  0
 20 68  1  0  0  0  0
 21 24  1  0  0  0  0
 21 71  1  0  0  0  0
 22 25  2  0  0  0  0
 22 70  1  0  0  0  0
 23 72  1  0  0  0  0
 23 73  1  0  0  0  0
 23 74  1  0  0  0  0
 24 26  1  0  0  0  0
 24 28  2  0  0  0  0
 25 27  1  0  0  0  0
 25 76  1  0  0  0  0
 26 77  1  0  0  0  0
 26 78  1  0  0  0  0
 26 79  1  0  0  0  0
 27 29  1  0  0  0  0
 27 30  2  0  0  0  0
 28 31  1  0  0  0  0
 28 80  1  0  0  0  0
 29 81  1  0  0  0  0
 29 82  1  0  0  0  0
 29 83  1  0  0  0  0
 30 32  1  0  0  0  0
 30 84  1  0  0  0  0
 31 33  2  0  0  0  0
 31 85  1  0  0  0  0
 32 35  2  0  0  0  0
 32 86  1  0  0  0  0
 33 34  1  0  0  0  0
 33 87  1  0  0  0  0
 34 37  1  0  0  0  0
 34 38  2  0  0  0  0
 35 36  1  0  0  0  0
 35 88  1  0  0  0  0
 36 39  2  0  0  0  0
 36 40  1  0  0  0  0
 37 89  1  0  0  0  0
 37 90  1  0  0  0  0
 37 91  1  0  0  0  0
 38 41  1  0  0  0  0
 38 92  1  0  0  0  0
 39 42  1  0  0  0  0
 39 93  1  0  0  0  0
 40 94  1  0  0  0  0
 40 95  1  0  0  0  0
 40 96  1  0  0  0  0
 41 42  2  0  0  0  0
 41 97  1  0  0  0  0
 42 98  1  0  0  0  0
M  END
