DB00293
 OpenBabel07062211533D

 54 56  0  0  1  0  0  0  0  0999 V2000
   -0.4843    1.4818    1.3111 S   0  0  0  0  0  0  0  0  0  0  0  0
   -5.7502   -3.6836    0.4116 O   0  0  0  0  0  0  0  0  0  0  0  0
   -2.8081   -0.1306    2.2995 O   0  0  0  0  0  0  0  0  0  0  0  0
   -4.2903   -2.9767   -1.1757 O   0  0  0  0  0  0  0  0  0  0  0  0
    3.2782   -2.3224   -1.8165 O   0  0  0  0  0  0  0  0  0  0  0  0
   -8.3483    1.1279   -1.2231 O   0  0  0  0  0  0  0  0  0  0  0  0
   -8.3316    0.8710    1.0310 O   0  0  0  0  0  0  0  0  0  0  0  0
    1.4858    2.7857   -0.0167 N   0  0  0  0  0  0  0  0  0  0  0  0
   -3.5921   -0.8058    0.2487 N   0  0  0  0  0  0  0  0  0  0  0  0
    6.3821   -1.2280    0.4722 N   0  0  0  0  0  0  0  0  0  0  0  0
    5.2033   -2.9188   -0.7250 N   0  0  0  0  0  0  0  0  0  0  0  0
    2.5523    2.7126   -0.9914 C   0  0  0  0  0  0  0  0  0  0  0  0
   -4.6890   -1.5823    0.7809 C   0  0  1  0  0  0  0  0  0  0  0  0
    3.5592    1.6819   -0.6042 C   0  0  0  0  0  0  0  0  0  0  0  0
   -5.9641   -0.7522    0.9723 C   0  0  0  0  0  0  0  0  0  0  0  0
    0.3586    1.9782   -0.0945 C   0  0  0  0  0  0  0  0  0  0  0  0
    4.3593   -0.5923   -0.6715 C   0  0  0  0  0  0  0  0  0  0  0  0
    3.4100    0.3651   -1.0392 C   0  0  0  0  0  0  0  0  0  0  0  0
    5.4562   -0.2414    0.1276 C   0  0  0  0  0  0  0  0  0  0  0  0
   -6.5706   -0.1549   -0.3039 C   0  0  0  0  0  0  0  0  0  0  0  0
    4.6482    2.0392    0.1917 C   0  0  0  0  0  0  0  0  0  0  0  0
   -1.6241    0.6033    0.3829 C   0  0  0  0  0  0  0  0  0  0  0  0
    5.5949    1.0809    0.5571 C   0  0  0  0  0  0  0  0  0  0  0  0
   -2.6742   -0.0944    1.0515 C   0  0  0  0  0  0  0  0  0  0  0  0
    1.6426    3.7507    1.0736 C   0  0  0  0  0  0  0  0  0  0  0  0
   -0.2175    1.4841   -1.2442 C   0  0  0  0  0  0  0  0  0  0  0  0
   -1.3660    0.6876   -0.9674 C   0  0  0  0  0  0  0  0  0  0  0  0
   -4.8740   -2.7891   -0.1161 C   0  0  0  0  0  0  0  0  0  0  0  0
    4.2360   -2.0095   -1.1160 C   0  0  0  0  0  0  0  0  0  0  0  0
    6.1901   -2.5124    0.0197 C   0  0  0  0  0  0  0  0  0  0  0  0
   -7.8192    0.6649   -0.0602 C   0  0  0  0  0  0  0  0  0  0  0  0
    7.2251   -3.5319    0.4273 C   0  0  0  0  0  0  0  0  0  0  0  0
    3.0477    3.6872   -1.0981 H   0  0  0  0  0  0  0  0  0  0  0  0
    2.1781    2.5071   -2.0018 H   0  0  0  0  0  0  0  0  0  0  0  0
   -4.3715   -1.9678    1.7578 H   0  0  0  0  0  0  0  0  0  0  0  0
   -6.7263   -1.3750    1.4585 H   0  0  0  0  0  0  0  0  0  0  0  0
   -5.7525    0.0661    1.6733 H   0  0  0  0  0  0  0  0  0  0  0  0
    2.5625    0.0925   -1.6619 H   0  0  0  0  0  0  0  0  0  0  0  0
   -5.8375    0.4988   -0.7893 H   0  0  0  0  0  0  0  0  0  0  0  0
   -6.8350   -0.9621   -0.9958 H   0  0  0  0  0  0  0  0  0  0  0  0
   -3.5029   -0.7694   -0.7613 H   0  0  0  0  0  0  0  0  0  0  0  0
    4.7720    3.0629    0.5353 H   0  0  0  0  0  0  0  0  0  0  0  0
    6.4379    1.3740    1.1777 H   0  0  0  0  0  0  0  0  0  0  0  0
    2.3871    4.5170    0.8314 H   0  0  0  0  0  0  0  0  0  0  0  0
    1.9727    3.2455    1.9875 H   0  0  0  0  0  0  0  0  0  0  0  0
    0.7029    4.2777    1.2737 H   0  0  0  0  0  0  0  0  0  0  0  0
    0.1418    1.6774   -2.2465 H   0  0  0  0  0  0  0  0  0  0  0  0
   -1.9547    0.2140   -1.7422 H   0  0  0  0  0  0  0  0  0  0  0  0
    7.1741   -0.9730    1.0501 H   0  0  0  0  0  0  0  0  0  0  0  0
    8.2021   -3.2318    0.0380 H   0  0  0  0  0  0  0  0  0  0  0  0
    6.9724   -4.5210    0.0354 H   0  0  0  0  0  0  0  0  0  0  0  0
    7.2759   -3.5820    1.5187 H   0  0  0  0  0  0  0  0  0  0  0  0
   -5.8571   -4.4721   -0.1621 H   0  0  0  0  0  0  0  0  0  0  0  0
   -9.1680    1.6449   -1.0712 H   0  0  0  0  0  0  0  0  0  0  0  0
  1 16  1  0  0  0  0
  1 22  1  0  0  0  0
  2 28  1  0  0  0  0
  2 53  1  0  0  0  0
  3 24  2  0  0  0  0
  4 28  2  0  0  0  0
  5 29  2  0  0  0  0
  6 31  1  0  0  0  0
  6 54  1  0  0  0  0
  7 31  2  0  0  0  0
  8 12  1  0  0  0  0
  8 16  1  0  0  0  0
  8 25  1  0  0  0  0
  9 13  1  0  0  0  0
  9 24  1  0  0  0  0
  9 41  1  0  0  0  0
 10 19  1  0  0  0  0
 10 30  2  0  0  0  0
 10 49  1  0  0  0  0
 11 29  1  0  0  0  0
 11 30  1  0  0  0  0
 12 14  1  0  0  0  0
 12 33  1  0  0  0  0
 12 34  1  0  0  0  0
 13 15  1  0  0  0  0
 13 28  1  0  0  0  0
 13 35  1  1  0  0  0
 14 18  2  0  0  0  0
 14 21  1  0  0  0  0
 15 20  1  0  0  0  0
 15 36  1  0  0  0  0
 15 37  1  0  0  0  0
 16 26  2  0  0  0  0
 17 18  1  0  0  0  0
 17 19  2  0  0  0  0
 17 29  1  0  0  0  0
 18 38  1  0  0  0  0
 19 23  1  0  0  0  0
 20 31  1  0  0  0  0
 20 39  1  0  0  0  0
 20 40  1  0  0  0  0
 21 23  2  0  0  0  0
 21 42  1  0  0  0  0
 22 24  1  0  0  0  0
 22 27  2  0  0  0  0
 23 43  1  0  0  0  0
 25 44  1  0  0  0  0
 25 45  1  0  0  0  0
 25 46  1  0  0  0  0
 26 27  1  0  0  0  0
 26 47  1  0  0  0  0
 27 48  1  0  0  0  0
 30 32  1  0  0  0  0
 32 50  1  0  0  0  0
 32 51  1  0  0  0  0
 32 52  1  0  0  0  0
M  END
