DB00531
 OpenBabel07062211533D

 29 29  0  0  0  0  0  0  0  0999 V2000
    3.5337    2.6879   -0.3627 Cl  0  0  0  0  0  0  0  0  0  0  0  0
    3.1281   -3.1675   -0.2268 Cl  0  0  0  0  0  0  0  0  0  0  0  0
   -0.5400    0.5023    1.1019 P   0  0  1  0  0  0  0  0  0  0  0  0
   -1.4869   -0.7820    1.4450 O   0  0  0  0  0  0  0  0  0  0  0  0
    0.0361    1.0719    2.3758 O   0  0  0  0  0  0  0  0  0  0  0  0
    0.6002   -0.0431    0.0252 N   0  0  0  0  0  0  0  0  0  0  0  0
   -1.5472    1.5410    0.2719 N   0  0  0  0  0  0  0  0  0  0  0  0
   -2.4143    0.9458   -0.7468 C   0  0  0  0  0  0  0  0  0  0  0  0
   -3.2249   -0.2079   -0.1542 C   0  0  0  0  0  0  0  0  0  0  0  0
   -2.3276   -1.3031    0.4193 C   0  0  0  0  0  0  0  0  0  0  0  0
    1.4481    0.9699   -0.5996 C   0  0  0  0  0  0  0  0  0  0  0  0
    1.4172   -1.1761    0.4549 C   0  0  0  0  0  0  0  0  0  0  0  0
    2.5084    1.4396    0.3843 C   0  0  0  0  0  0  0  0  0  0  0  0
    2.1455   -1.7746   -0.7386 C   0  0  0  0  0  0  0  0  0  0  0  0
   -1.8122    0.5956   -1.5923 H   0  0  0  0  0  0  0  0  0  0  0  0
   -3.0994    1.7122   -1.1243 H   0  0  0  0  0  0  0  0  0  0  0  0
   -3.8703    0.1830    0.6425 H   0  0  0  0  0  0  0  0  0  0  0  0
   -3.8751   -0.6336   -0.9263 H   0  0  0  0  0  0  0  0  0  0  0  0
   -1.1311    2.3947   -0.0968 H   0  0  0  0  0  0  0  0  0  0  0  0
   -2.9396   -2.0962    0.8591 H   0  0  0  0  0  0  0  0  0  0  0  0
   -1.7051   -1.7531   -0.3609 H   0  0  0  0  0  0  0  0  0  0  0  0
    0.8344    1.8266   -0.9010 H   0  0  0  0  0  0  0  0  0  0  0  0
    1.8837    0.6277   -1.5436 H   0  0  0  0  0  0  0  0  0  0  0  0
    0.7471   -1.9516    0.8476 H   0  0  0  0  0  0  0  0  0  0  0  0
    2.0863   -0.9385    1.2883 H   0  0  0  0  0  0  0  0  0  0  0  0
    2.0823    1.8935    1.2803 H   0  0  0  0  0  0  0  0  0  0  0  0
    3.2089    0.6583    0.6826 H   0  0  0  0  0  0  0  0  0  0  0  0
    1.4469   -2.1245   -1.5053 H   0  0  0  0  0  0  0  0  0  0  0  0
    2.8663   -1.0981   -1.1995 H   0  0  0  0  0  0  0  0  0  0  0  0
  1 13  1  0  0  0  0
  2 14  1  0  0  0  0
  3  4  1  0  0  0  0
  3  5  2  1  0  0  0
  3  6  1  0  0  0  0
  3  7  1  0  0  0  0
  4 10  1  0  0  0  0
  6 11  1  0  0  0  0
  6 12  1  0  0  0  0
  7  8  1  0  0  0  0
  7 19  1  0  0  0  0
  8  9  1  0  0  0  0
  8 15  1  0  0  0  0
  8 16  1  0  0  0  0
  9 10  1  0  0  0  0
  9 17  1  0  0  0  0
  9 18  1  0  0  0  0
 10 20  1  0  0  0  0
 10 21  1  0  0  0  0
 11 13  1  0  0  0  0
 11 22  1  0  0  0  0
 11 23  1  0  0  0  0
 12 14  1  0  0  0  0
 12 24  1  0  0  0  0
 12 25  1  0  0  0  0
 13 26  1  0  0  0  0
 13 27  1  0  0  0  0
 14 28  1  0  0  0  0
 14 29  1  0  0  0  0
M  END
