DB00285
 OpenBabel07062211533D

 47 48  0  0  1  0  0  0  0  0999 V2000
   -0.9875   -0.9673    1.4671 O   0  0  0  0  0  0  0  0  0  0  0  0
    4.7719   -1.6160   -0.5764 O   0  0  0  0  0  0  0  0  0  0  0  0
    0.4753    2.8426    0.0366 N   0  0  0  0  0  0  0  0  0  0  0  0
   -1.4322   -0.5037    0.1887 C   0  0  0  0  0  0  0  0  0  0  0  0
   -0.4322    0.5455   -0.3006 C   0  0  1  0  0  0  0  0  0  0  0  0
   -1.4596   -1.7057   -0.7679 C   0  0  0  0  0  0  0  0  0  0  0  0
   -2.8342    0.1093    0.3380 C   0  0  0  0  0  0  0  0  0  0  0  0
   -2.5131   -2.7409   -0.3696 C   0  0  0  0  0  0  0  0  0  0  0  0
   -3.8820   -0.9316    0.7352 C   0  0  0  0  0  0  0  0  0  0  0  0
   -3.8955   -2.1117   -0.2310 C   0  0  0  0  0  0  0  0  0  0  0  0
   -0.4368    1.8286    0.5576 C   0  0  0  0  0  0  0  0  0  0  0  0
    0.9729   -0.0379   -0.3750 C   0  0  0  0  0  0  0  0  0  0  0  0
    1.5967   -0.1161   -1.6023 C   0  0  0  0  0  0  0  0  0  0  0  0
    1.5765   -0.4695    0.7876 C   0  0  0  0  0  0  0  0  0  0  0  0
    0.4973    4.0132    0.9143 C   0  0  0  0  0  0  0  0  0  0  0  0
    0.0903    3.2311   -1.3207 C   0  0  0  0  0  0  0  0  0  0  0  0
    2.8832   -0.6506   -1.6704 C   0  0  0  0  0  0  0  0  0  0  0  0
    2.8631   -1.0039    0.7196 C   0  0  0  0  0  0  0  0  0  0  0  0
    3.5167   -1.0944   -0.5095 C   0  0  0  0  0  0  0  0  0  0  0  0
    5.3608   -2.0507    0.6484 C   0  0  0  0  0  0  0  0  0  0  0  0
   -0.7614    0.8070   -1.3148 H   0  0  0  0  0  0  0  0  0  0  0  0
   -0.4954   -2.2268   -0.7816 H   0  0  0  0  0  0  0  0  0  0  0  0
   -1.6659   -1.3688   -1.7919 H   0  0  0  0  0  0  0  0  0  0  0  0
   -3.1409    0.5884   -0.6001 H   0  0  0  0  0  0  0  0  0  0  0  0
   -2.8597    0.8684    1.1270 H   0  0  0  0  0  0  0  0  0  0  0  0
   -2.2289   -3.2126    0.5789 H   0  0  0  0  0  0  0  0  0  0  0  0
   -2.5463   -3.5377   -1.1214 H   0  0  0  0  0  0  0  0  0  0  0  0
   -4.8732   -0.4642    0.7573 H   0  0  0  0  0  0  0  0  0  0  0  0
   -3.6800   -1.2929    1.7509 H   0  0  0  0  0  0  0  0  0  0  0  0
   -4.2422   -1.7729   -1.2151 H   0  0  0  0  0  0  0  0  0  0  0  0
   -4.6108   -2.8654    0.1172 H   0  0  0  0  0  0  0  0  0  0  0  0
   -1.4417    2.2632    0.5964 H   0  0  0  0  0  0  0  0  0  0  0  0
   -0.1595    1.5943    1.5926 H   0  0  0  0  0  0  0  0  0  0  0  0
   -1.1986   -0.2910    2.1324 H   0  0  0  0  0  0  0  0  0  0  0  0
    1.1126    0.2174   -2.5147 H   0  0  0  0  0  0  0  0  0  0  0  0
    1.1440   -0.3547    1.7739 H   0  0  0  0  0  0  0  0  0  0  0  0
    0.8165    3.7321    1.9243 H   0  0  0  0  0  0  0  0  0  0  0  0
   -0.4834    4.4979    0.9841 H   0  0  0  0  0  0  0  0  0  0  0  0
    1.2221    4.7515    0.5537 H   0  0  0  0  0  0  0  0  0  0  0  0
    0.6919    4.0864   -1.6525 H   0  0  0  0  0  0  0  0  0  0  0  0
   -0.9635    3.5257   -1.3876 H   0  0  0  0  0  0  0  0  0  0  0  0
    0.2887    2.4511   -2.0588 H   0  0  0  0  0  0  0  0  0  0  0  0
    3.3865   -0.7206   -2.6309 H   0  0  0  0  0  0  0  0  0  0  0  0
    3.3033   -1.3149    1.6610 H   0  0  0  0  0  0  0  0  0  0  0  0
    5.5030   -1.2169    1.3442 H   0  0  0  0  0  0  0  0  0  0  0  0
    6.3558   -2.4398    0.4084 H   0  0  0  0  0  0  0  0  0  0  0  0
    4.7951   -2.8743    1.0972 H   0  0  0  0  0  0  0  0  0  0  0  0
  1  4  1  0  0  0  0
  1 34  1  0  0  0  0
  2 19  1  0  0  0  0
  2 20  1  0  0  0  0
  3 11  1  0  0  0  0
  3 15  1  0  0  0  0
  3 16  1  0  0  0  0
  4  5  1  0  0  0  0
  4  6  1  0  0  0  0
  4  7  1  0  0  0  0
  5 11  1  0  0  0  0
  5 12  1  0  0  0  0
  5 21  1  6  0  0  0
  6  8  1  0  0  0  0
  6 22  1  0  0  0  0
  6 23  1  0  0  0  0
  7  9  1  0  0  0  0
  7 24  1  0  0  0  0
  7 25  1  0  0  0  0
  8 10  1  0  0  0  0
  8 26  1  0  0  0  0
  8 27  1  0  0  0  0
  9 10  1  0  0  0  0
  9 28  1  0  0  0  0
  9 29  1  0  0  0  0
 10 30  1  0  0  0  0
 10 31  1  0  0  0  0
 11 32  1  0  0  0  0
 11 33  1  0  0  0  0
 12 13  2  0  0  0  0
 12 14  1  0  0  0  0
 13 17  1  0  0  0  0
 13 35  1  0  0  0  0
 14 18  2  0  0  0  0
 14 36  1  0  0  0  0
 15 37  1  0  0  0  0
 15 38  1  0  0  0  0
 15 39  1  0  0  0  0
 16 40  1  0  0  0  0
 16 41  1  0  0  0  0
 16 42  1  0  0  0  0
 17 19  2  0  0  0  0
 17 43  1  0  0  0  0
 18 19  1  0  0  0  0
 18 44  1  0  0  0  0
 20 45  1  0  0  0  0
 20 46  1  0  0  0  0
 20 47  1  0  0  0  0
M  END
