DB00399
 OpenBabel07062211533D

 26 26  0  0  0  0  0  0  0  0999 V2000
   -0.3376   -1.7291   -0.5141 P   0  0  0  0  0  0  0  0  0  0  0  0
   -2.4524    0.6372   -0.0989 P   0  0  0  0  0  0  0  0  0  0  0  0
   -0.3998    0.5533   -1.6010 O   0  0  0  0  0  0  0  0  0  0  0  0
   -1.5514   -2.2840   -1.4274 O   0  0  0  0  0  0  0  0  0  0  0  0
   -0.6557   -2.3717    0.9338 O   0  0  0  0  0  0  0  0  0  0  0  0
   -2.3211    2.2433   -0.2175 O   0  0  0  0  0  0  0  0  0  0  0  0
   -2.7516    0.4164    1.4748 O   0  0  0  0  0  0  0  0  0  0  0  0
    1.0335   -2.0087   -1.0541 O   0  0  0  0  0  0  0  0  0  0  0  0
   -3.4496    0.0036   -1.0229 O   0  0  0  0  0  0  0  0  0  0  0  0
    1.6549    0.4933    0.4388 N   0  0  0  0  0  0  0  0  0  0  0  0
    3.6377   -0.4715    0.5591 N   0  0  0  0  0  0  0  0  0  0  0  0
   -0.7343    0.0444   -0.2994 C   0  0  0  0  0  0  0  0  0  0  0  0
    0.2401    0.7362    0.6809 C   0  0  0  0  0  0  0  0  0  0  0  0
    2.4665    1.2412   -0.3533 C   0  0  0  0  0  0  0  0  0  0  0  0
    2.3891   -0.5212    0.9675 C   0  0  0  0  0  0  0  0  0  0  0  0
    3.6927    0.6252   -0.2640 C   0  0  0  0  0  0  0  0  0  0  0  0
    0.1083    1.8245    0.6622 H   0  0  0  0  0  0  0  0  0  0  0  0
    0.0315    0.4043    1.7045 H   0  0  0  0  0  0  0  0  0  0  0  0
   -0.5165    1.5186   -1.5850 H   0  0  0  0  0  0  0  0  0  0  0  0
    2.1257    2.1131   -0.8940 H   0  0  0  0  0  0  0  0  0  0  0  0
    1.9787   -1.2588    1.6437 H   0  0  0  0  0  0  0  0  0  0  0  0
   -1.5411   -3.2231   -1.7104 H   0  0  0  0  0  0  0  0  0  0  0  0
   -0.4835   -3.3265    1.0780 H   0  0  0  0  0  0  0  0  0  0  0  0
   -3.1336    2.7910   -0.1736 H   0  0  0  0  0  0  0  0  0  0  0  0
   -3.6424    0.6332    1.8235 H   0  0  0  0  0  0  0  0  0  0  0  0
    4.6121    0.9155   -0.7514 H   0  0  0  0  0  0  0  0  0  0  0  0
  1  4  1  0  0  0  0
  1  5  1  0  0  0  0
  1  8  2  0  0  0  0
  1 12  1  0  0  0  0
  2  6  1  0  0  0  0
  2  7  1  0  0  0  0
  2  9  2  0  0  0  0
  2 12  1  0  0  0  0
  3 12  1  0  0  0  0
  3 19  1  0  0  0  0
  4 22  1  0  0  0  0
  5 23  1  0  0  0  0
  6 24  1  0  0  0  0
  7 25  1  0  0  0  0
 10 13  1  0  0  0  0
 10 14  1  0  0  0  0
 10 15  2  0  0  0  0
 11 15  1  0  0  0  0
 11 16  2  0  0  0  0
 12 13  1  0  0  0  0
 13 17  1  0  0  0  0
 13 18  1  0  0  0  0
 14 16  1  0  0  0  0
 14 20  1  0  0  0  0
 15 21  1  0  0  0  0
 16 26  1  0  0  0  0
M  END
