DB00556
 OpenBabel07062211533D

 11 10  0  0  0  0  0  0  0  0999 V2000
    0.0000    1.4092    1.0818 F   0  0  0  0  0  0  0  0  0  0  0  0
    0.0001    1.4014   -1.0965 F   0  0  0  0  0  0  0  0  0  0  0  0
    1.3335   -1.0243   -1.0873 F   0  0  0  0  0  0  0  0  0  0  0  0
    1.3173   -1.0145    1.0936 F   0  0  0  0  0  0  0  0  0  0  0  0
    2.3606    0.5612    0.0048 F   0  0  0  0  0  0  0  0  0  0  0  0
   -1.3195   -1.0111    1.0959 F   0  0  0  0  0  0  0  0  0  0  0  0
   -2.3607    0.5613    0.0001 F   0  0  0  0  0  0  0  0  0  0  0  0
   -1.3312   -1.0276   -1.0850 F   0  0  0  0  0  0  0  0  0  0  0  0
    0.0000    0.5953   -0.0045 C   0  0  0  0  0  0  0  0  0  0  0  0
    1.2637   -0.2255   -0.0015 C   0  0  0  0  0  0  0  0  0  0  0  0
   -1.2637   -0.2255   -0.0015 C   0  0  0  0  0  0  0  0  0  0  0  0
  1  9  1  0  0  0  0
  2  9  1  0  0  0  0
  3 10  1  0  0  0  0
  4 10  1  0  0  0  0
  5 10  1  0  0  0  0
  6 11  1  0  0  0  0
  7 11  1  0  0  0  0
  8 11  1  0  0  0  0
  9 10  1  0  0  0  0
  9 11  1  0  0  0  0
M  END
