DB00841
 OpenBabel07062211533D

 45 46  0  0  1  0  0  0  0  0999 V2000
   -3.6838    3.4306    0.6858 O   0  0  0  0  0  0  0  0  0  0  0  0
    4.8601    4.1459   -0.4428 O   0  0  0  0  0  0  0  0  0  0  0  0
   -5.8656    2.7117   -0.8795 O   0  0  0  0  0  0  0  0  0  0  0  0
   -0.2302   -2.4969    0.4447 N   0  0  0  0  0  0  0  0  0  0  0  0
    0.8622   -2.7062   -0.5059 C   0  0  1  0  0  0  0  0  0  0  0  0
    1.6375   -1.3978   -0.7487 C   0  0  0  0  0  0  0  0  0  0  0  0
    2.2549   -0.7672    0.5088 C   0  0  0  0  0  0  0  0  0  0  0  0
   -1.1333   -1.4603   -0.0293 C   0  0  0  0  0  0  0  0  0  0  0  0
    1.8000   -3.7918    0.0234 C   0  0  0  0  0  0  0  0  0  0  0  0
   -2.2768   -1.2353    0.9605 C   0  0  0  0  0  0  0  0  0  0  0  0
    2.9511    0.5459    0.2541 C   0  0  0  0  0  0  0  0  0  0  0  0
   -3.2334   -0.1779    0.4701 C   0  0  0  0  0  0  0  0  0  0  0  0
    4.2988    0.5501   -0.0720 C   0  0  0  0  0  0  0  0  0  0  0  0
    2.2319    1.7275    0.3511 C   0  0  0  0  0  0  0  0  0  0  0  0
   -3.0139    1.1487    0.8082 C   0  0  0  0  0  0  0  0  0  0  0  0
   -4.3176   -0.5501   -0.3104 C   0  0  0  0  0  0  0  0  0  0  0  0
    4.9426    1.7650   -0.3067 C   0  0  0  0  0  0  0  0  0  0  0  0
    2.8758    2.9423    0.1162 C   0  0  0  0  0  0  0  0  0  0  0  0
   -3.8993    2.1265    0.3551 C   0  0  0  0  0  0  0  0  0  0  0  0
    4.2312    2.9612   -0.2126 C   0  0  0  0  0  0  0  0  0  0  0  0
   -5.2031    0.4276   -0.7634 C   0  0  0  0  0  0  0  0  0  0  0  0
   -4.9939    1.7661   -0.4306 C   0  0  0  0  0  0  0  0  0  0  0  0
    0.4559   -3.0533   -1.4646 H   0  0  0  0  0  0  0  0  0  0  0  0
    2.4564   -1.6199   -1.4486 H   0  0  0  0  0  0  0  0  0  0  0  0
    1.0289   -0.6641   -1.2901 H   0  0  0  0  0  0  0  0  0  0  0  0
    2.9767   -1.4573    0.9624 H   0  0  0  0  0  0  0  0  0  0  0  0
    1.4874   -0.6076    1.2764 H   0  0  0  0  0  0  0  0  0  0  0  0
   -0.7414   -3.3687    0.5794 H   0  0  0  0  0  0  0  0  0  0  0  0
   -0.6307   -0.4944   -0.1352 H   0  0  0  0  0  0  0  0  0  0  0  0
   -1.5427   -1.7323   -1.0106 H   0  0  0  0  0  0  0  0  0  0  0  0
    2.1702   -3.5698    1.0298 H   0  0  0  0  0  0  0  0  0  0  0  0
    1.2791   -4.7550    0.0751 H   0  0  0  0  0  0  0  0  0  0  0  0
    2.6637   -3.9204   -0.6376 H   0  0  0  0  0  0  0  0  0  0  0  0
   -1.8792   -0.9443    1.9422 H   0  0  0  0  0  0  0  0  0  0  0  0
   -2.8256   -2.1717    1.1285 H   0  0  0  0  0  0  0  0  0  0  0  0
    4.8608   -0.3763   -0.1500 H   0  0  0  0  0  0  0  0  0  0  0  0
    1.1753    1.7227    0.6042 H   0  0  0  0  0  0  0  0  0  0  0  0
   -2.1583    1.4258    1.4188 H   0  0  0  0  0  0  0  0  0  0  0  0
   -4.4877   -1.5895   -0.5763 H   0  0  0  0  0  0  0  0  0  0  0  0
    5.9987    1.7659   -0.5629 H   0  0  0  0  0  0  0  0  0  0  0  0
    2.3160    3.8706    0.1903 H   0  0  0  0  0  0  0  0  0  0  0  0
   -6.0515    0.1330   -1.3753 H   0  0  0  0  0  0  0  0  0  0  0  0
   -2.8811    3.4907    1.2317 H   0  0  0  0  0  0  0  0  0  0  0  0
    5.7928    3.9714   -0.6569 H   0  0  0  0  0  0  0  0  0  0  0  0
   -6.5588    2.2788   -1.4067 H   0  0  0  0  0  0  0  0  0  0  0  0
  1 19  1  0  0  0  0
  1 43  1  0  0  0  0
  2 20  1  0  0  0  0
  2 44  1  0  0  0  0
  3 22  1  0  0  0  0
  3 45  1  0  0  0  0
  4  5  1  0  0  0  0
  4  8  1  0  0  0  0
  4 28  1  0  0  0  0
  5  6  1  0  0  0  0
  5  9  1  0  0  0  0
  5 23  1  6  0  0  0
  6  7  1  0  0  0  0
  6 24  1  0  0  0  0
  6 25  1  0  0  0  0
  7 11  1  0  0  0  0
  7 26  1  0  0  0  0
  7 27  1  0  0  0  0
  8 10  1  0  0  0  0
  8 29  1  0  0  0  0
  8 30  1  0  0  0  0
  9 31  1  0  0  0  0
  9 32  1  0  0  0  0
  9 33  1  0  0  0  0
 10 12  1  0  0  0  0
 10 34  1  0  0  0  0
 10 35  1  0  0  0  0
 11 13  2  0  0  0  0
 11 14  1  0  0  0  0
 12 15  2  0  0  0  0
 12 16  1  0  0  0  0
 13 17  1  0  0  0  0
 13 36  1  0  0  0  0
 14 18  2  0  0  0  0
 14 37  1  0  0  0  0
 15 19  1  0  0  0  0
 15 38  1  0  0  0  0
 16 21  2  0  0  0  0
 16 39  1  0  0  0  0
 17 20  2  0  0  0  0
 17 40  1  0  0  0  0
 18 20  1  0  0  0  0
 18 41  1  0  0  0  0
 19 22  2  0  0  0  0
 21 22  1  0  0  0  0
 21 42  1  0  0  0  0
M  END
