DB00797
 OpenBabel07062211533D

 24 25  0  0  0  0  0  0  0  0999 V2000
   -1.9408   -0.9515   -0.1614 N   0  0  0  0  0  0  0  0  0  0  0  0
   -1.8803    1.3230   -0.2099 N   0  0  0  0  0  0  0  0  0  0  0  0
   -1.3551    0.1929   -0.6108 C   0  0  0  0  0  0  0  0  0  0  0  0
   -3.0413   -0.6354    0.6981 C   0  0  0  0  0  0  0  0  0  0  0  0
   -0.1539    0.1496   -1.4971 C   0  0  0  0  0  0  0  0  0  0  0  0
   -3.0355    0.8995    0.6404 C   0  0  0  0  0  0  0  0  0  0  0  0
    1.1113    0.0789   -0.6908 C   0  0  0  0  0  0  0  0  0  0  0  0
    1.7460    1.2532   -0.3042 C   0  0  0  0  0  0  0  0  0  0  0  0
    1.6340   -1.1599   -0.3394 C   0  0  0  0  0  0  0  0  0  0  0  0
    2.9209    1.1878    0.4448 C   0  0  0  0  0  0  0  0  0  0  0  0
    2.8087   -1.2254    0.4097 C   0  0  0  0  0  0  0  0  0  0  0  0
    3.4523   -0.0514    0.8019 C   0  0  0  0  0  0  0  0  0  0  0  0
   -2.8675   -0.9976    1.7156 H   0  0  0  0  0  0  0  0  0  0  0  0
   -3.9808   -1.0494    0.3208 H   0  0  0  0  0  0  0  0  0  0  0  0
   -0.1469    1.0382   -2.1400 H   0  0  0  0  0  0  0  0  0  0  0  0
   -0.2285   -0.7154   -2.1673 H   0  0  0  0  0  0  0  0  0  0  0  0
   -3.9651    1.2781    0.2019 H   0  0  0  0  0  0  0  0  0  0  0  0
   -2.9294    1.3287    1.6422 H   0  0  0  0  0  0  0  0  0  0  0  0
   -1.6398   -1.8966   -0.3650 H   0  0  0  0  0  0  0  0  0  0  0  0
    1.3402    2.2240   -0.5752 H   0  0  0  0  0  0  0  0  0  0  0  0
    1.1408   -2.0806   -0.6384 H   0  0  0  0  0  0  0  0  0  0  0  0
    3.4216    2.1017    0.7506 H   0  0  0  0  0  0  0  0  0  0  0  0
    3.2224   -2.1902    0.6881 H   0  0  0  0  0  0  0  0  0  0  0  0
    4.3668   -0.1024    1.3853 H   0  0  0  0  0  0  0  0  0  0  0  0
  1  3  1  0  0  0  0
  1  4  1  0  0  0  0
  1 19  1  0  0  0  0
  2  3  2  0  0  0  0
  2  6  1  0  0  0  0
  3  5  1  0  0  0  0
  4  6  1  0  0  0  0
  4 13  1  0  0  0  0
  4 14  1  0  0  0  0
  5  7  1  0  0  0  0
  5 15  1  0  0  0  0
  5 16  1  0  0  0  0
  6 17  1  0  0  0  0
  6 18  1  0  0  0  0
  7  8  2  0  0  0  0
  7  9  1  0  0  0  0
  8 10  1  0  0  0  0
  8 20  1  0  0  0  0
  9 11  2  0  0  0  0
  9 21  1  0  0  0  0
 10 12  2  0  0  0  0
 10 22  1  0  0  0  0
 11 12  1  0  0  0  0
 11 23  1  0  0  0  0
 12 24  1  0  0  0  0
M  END
