DB00679
 OpenBabel07062211533D

 51 54  0  0  1  0  0  0  0  0999 V2000
   -4.3232    1.8913    0.0006 S   0  0  0  0  0  0  0  0  0  0  0  0
    1.5407    4.0944   -1.0661 S   0  0  0  0  0  0  0  0  0  0  0  0
    2.3465   -2.5562   -0.2641 N   0  0  0  0  0  0  0  0  0  0  0  0
   -1.7025    0.2844    0.4634 N   0  0  0  0  0  0  0  0  0  0  0  0
    1.5163   -1.7703    0.6688 C   0  0  1  0  0  0  0  0  0  0  0  0
    2.4021   -0.7629    1.4271 C   0  0  0  0  0  0  0  0  0  0  0  0
    0.3044   -1.0694    0.0356 C   0  0  0  0  0  0  0  0  0  0  0  0
    3.2107    0.1270    0.4878 C   0  0  0  0  0  0  0  0  0  0  0  0
    3.0890   -1.7292   -1.2221 C   0  0  0  0  0  0  0  0  0  0  0  0
    3.9910   -0.7233   -0.5066 C   0  0  0  0  0  0  0  0  0  0  0  0
   -0.5407   -0.3593    1.0901 C   0  0  0  0  0  0  0  0  0  0  0  0
    1.6014   -3.6097   -0.9471 C   0  0  0  0  0  0  0  0  0  0  0  0
   -1.5355    1.6079   -0.0170 C   0  0  0  0  0  0  0  0  0  0  0  0
   -2.8823   -0.4899    0.3253 C   0  0  0  0  0  0  0  0  0  0  0  0
   -2.6487    2.4279   -0.2880 C   0  0  0  0  0  0  0  0  0  0  0  0
   -4.1291    0.1224    0.0884 C   0  0  0  0  0  0  0  0  0  0  0  0
   -0.2594    2.1525   -0.2799 C   0  0  0  0  0  0  0  0  0  0  0  0
   -2.8616   -1.9007    0.3812 C   0  0  0  0  0  0  0  0  0  0  0  0
   -2.4776    3.7370   -0.7724 C   0  0  0  0  0  0  0  0  0  0  0  0
   -5.2948   -0.6508   -0.0556 C   0  0  0  0  0  0  0  0  0  0  0  0
   -0.0952    3.4525   -0.7662 C   0  0  0  0  0  0  0  0  0  0  0  0
   -4.0225   -2.6645    0.2323 C   0  0  0  0  0  0  0  0  0  0  0  0
   -1.2053    4.2465   -1.0097 C   0  0  0  0  0  0  0  0  0  0  0  0
   -5.2408   -2.0387    0.0168 C   0  0  0  0  0  0  0  0  0  0  0  0
    2.2892    3.9811    0.5835 C   0  0  0  0  0  0  0  0  0  0  0  0
    1.1330   -2.4704    1.4242 H   0  0  0  0  0  0  0  0  0  0  0  0
    3.1148   -1.3374    2.0372 H   0  0  0  0  0  0  0  0  0  0  0  0
    1.8558   -0.1545    2.1501 H   0  0  0  0  0  0  0  0  0  0  0  0
   -0.3021   -1.8060   -0.4966 H   0  0  0  0  0  0  0  0  0  0  0  0
    0.6286   -0.3825   -0.7502 H   0  0  0  0  0  0  0  0  0  0  0  0
    3.9038    0.7468    1.0677 H   0  0  0  0  0  0  0  0  0  0  0  0
    2.5623    0.8067   -0.0647 H   0  0  0  0  0  0  0  0  0  0  0  0
    2.4110   -1.2026   -1.9048 H   0  0  0  0  0  0  0  0  0  0  0  0
    3.7287   -2.3684   -1.8433 H   0  0  0  0  0  0  0  0  0  0  0  0
    4.4812   -0.0760   -1.2428 H   0  0  0  0  0  0  0  0  0  0  0  0
    4.7878   -1.2611    0.0232 H   0  0  0  0  0  0  0  0  0  0  0  0
    0.0183    0.3985    1.6462 H   0  0  0  0  0  0  0  0  0  0  0  0
   -0.8538   -1.0639    1.8723 H   0  0  0  0  0  0  0  0  0  0  0  0
    1.0368   -4.2176   -0.2316 H   0  0  0  0  0  0  0  0  0  0  0  0
    2.2940   -4.2914   -1.4540 H   0  0  0  0  0  0  0  0  0  0  0  0
    0.9079   -3.2209   -1.7002 H   0  0  0  0  0  0  0  0  0  0  0  0
    0.6354    1.5800   -0.0926 H   0  0  0  0  0  0  0  0  0  0  0  0
   -1.9540   -2.4642    0.5687 H   0  0  0  0  0  0  0  0  0  0  0  0
   -3.3367    4.3749   -0.9704 H   0  0  0  0  0  0  0  0  0  0  0  0
   -6.2601   -0.1781   -0.2265 H   0  0  0  0  0  0  0  0  0  0  0  0
   -3.9699   -3.7478    0.2912 H   0  0  0  0  0  0  0  0  0  0  0  0
   -1.1034    5.2615   -1.3846 H   0  0  0  0  0  0  0  0  0  0  0  0
   -6.1461   -2.6272   -0.0962 H   0  0  0  0  0  0  0  0  0  0  0  0
    2.3287    2.9490    0.9352 H   0  0  0  0  0  0  0  0  0  0  0  0
    1.7168    4.5809    1.2965 H   0  0  0  0  0  0  0  0  0  0  0  0
    3.3093    4.3717    0.5402 H   0  0  0  0  0  0  0  0  0  0  0  0
  1 15  1  0  0  0  0
  1 16  1  0  0  0  0
  2 21  1  0  0  0  0
  2 25  1  0  0  0  0
  3  5  1  0  0  0  0
  3  9  1  0  0  0  0
  3 12  1  0  0  0  0
  4 11  1  0  0  0  0
  4 13  1  0  0  0  0
  4 14  1  0  0  0  0
  5  6  1  0  0  0  0
  5  7  1  0  0  0  0
  5 26  1  1  0  0  0
  6  8  1  0  0  0  0
  6 27  1  0  0  0  0
  6 28  1  0  0  0  0
  7 11  1  0  0  0  0
  7 29  1  0  0  0  0
  7 30  1  0  0  0  0
  8 10  1  0  0  0  0
  8 31  1  0  0  0  0
  8 32  1  0  0  0  0
  9 10  1  0  0  0  0
  9 33  1  0  0  0  0
  9 34  1  0  0  0  0
 10 35  1  0  0  0  0
 10 36  1  0  0  0  0
 11 37  1  0  0  0  0
 11 38  1  0  0  0  0
 12 39  1  0  0  0  0
 12 40  1  0  0  0  0
 12 41  1  0  0  0  0
 13 15  2  0  0  0  0
 13 17  1  0  0  0  0
 14 16  2  0  0  0  0
 14 18  1  0  0  0  0
 15 19  1  0  0  0  0
 16 20  1  0  0  0  0
 17 21  2  0  0  0  0
 17 42  1  0  0  0  0
 18 22  2  0  0  0  0
 18 43  1  0  0  0  0
 19 23  2  0  0  0  0
 19 44  1  0  0  0  0
 20 24  2  0  0  0  0
 20 45  1  0  0  0  0
 21 23  1  0  0  0  0
 22 24  1  0  0  0  0
 22 46  1  0  0  0  0
 23 47  1  0  0  0  0
 24 48  1  0  0  0  0
 25 49  1  0  0  0  0
 25 50  1  0  0  0  0
 25 51  1  0  0  0  0
M  END
