DB00675
 OpenBabel07062211533D

 57 59  0  0  0  0  0  0  0  0999 V2000
   -3.0492   -1.3765   -1.0046 O   0  0  0  0  0  0  0  0  0  0  0  0
   -6.2271   -0.1588    0.4110 N   0  0  0  0  0  0  0  0  0  0  0  0
    2.4019   -0.3205   -0.2390 C   0  0  0  0  0  0  0  0  0  0  0  0
    2.8546    0.9710   -0.1036 C   0  0  0  0  0  0  0  0  0  0  0  0
    0.9879   -0.5954   -0.4377 C   0  0  0  0  0  0  0  0  0  0  0  0
    4.3053    1.3476    0.1587 C   0  0  0  0  0  0  0  0  0  0  0  0
    3.3954   -1.4436   -0.1819 C   0  0  0  0  0  0  0  0  0  0  0  0
    1.9447    2.1433   -0.1470 C   0  0  0  0  0  0  0  0  0  0  0  0
    0.4627   -0.6511   -1.7288 C   0  0  0  0  0  0  0  0  0  0  0  0
    0.1562   -0.8022    0.6630 C   0  0  0  0  0  0  0  0  0  0  0  0
    4.6322    1.4298    1.6449 C   0  0  0  0  0  0  0  0  0  0  0  0
   -1.7162   -1.1190   -0.8173 C   0  0  0  0  0  0  0  0  0  0  0  0
   -0.8939   -0.9136   -1.9192 C   0  0  0  0  0  0  0  0  0  0  0  0
   -1.2006   -1.0651    0.4724 C   0  0  0  0  0  0  0  0  0  0  0  0
    3.9803   -1.8561   -1.3531 C   0  0  0  0  0  0  0  0  0  0  0  0
    3.6731   -2.0064    1.0386 C   0  0  0  0  0  0  0  0  0  0  0  0
    1.3850    2.5977    1.0298 C   0  0  0  0  0  0  0  0  0  0  0  0
    1.6863    2.7428   -1.3630 C   0  0  0  0  0  0  0  0  0  0  0  0
   -5.2748   -0.5941   -0.6102 C   0  0  0  0  0  0  0  0  0  0  0  0
   -3.9356   -0.9438    0.0190 C   0  0  0  0  0  0  0  0  0  0  0  0
    4.9036   -2.9002   -1.3000 C   0  0  0  0  0  0  0  0  0  0  0  0
    4.5967   -3.0503    1.0918 C   0  0  0  0  0  0  0  0  0  0  0  0
    0.5300    3.6991    0.9888 C   0  0  0  0  0  0  0  0  0  0  0  0
    0.8313    3.8444   -1.4039 C   0  0  0  0  0  0  0  0  0  0  0  0
    5.2120   -3.4972   -0.0775 C   0  0  0  0  0  0  0  0  0  0  0  0
    0.2534    4.3225   -0.2281 C   0  0  0  0  0  0  0  0  0  0  0  0
   -7.5077    0.1927   -0.2011 C   0  0  0  0  0  0  0  0  0  0  0  0
   -6.4111   -1.2043    1.4168 C   0  0  0  0  0  0  0  0  0  0  0  0
    4.5363    2.3114   -0.3138 H   0  0  0  0  0  0  0  0  0  0  0  0
    4.9895    0.6366   -0.3168 H   0  0  0  0  0  0  0  0  0  0  0  0
    1.0963   -0.4914   -2.5981 H   0  0  0  0  0  0  0  0  0  0  0  0
    0.5504   -0.7678    1.6759 H   0  0  0  0  0  0  0  0  0  0  0  0
    4.1008    2.2570    2.1255 H   0  0  0  0  0  0  0  0  0  0  0  0
    5.7040    1.6101    1.7791 H   0  0  0  0  0  0  0  0  0  0  0  0
    4.3796    0.5100    2.1780 H   0  0  0  0  0  0  0  0  0  0  0  0
   -1.2991   -0.9554   -2.9262 H   0  0  0  0  0  0  0  0  0  0  0  0
   -1.8059   -1.2496    1.3545 H   0  0  0  0  0  0  0  0  0  0  0  0
    3.7475   -1.3960   -2.3087 H   0  0  0  0  0  0  0  0  0  0  0  0
    3.1951   -1.6696    1.9535 H   0  0  0  0  0  0  0  0  0  0  0  0
   -5.6520   -1.4559   -1.1775 H   0  0  0  0  0  0  0  0  0  0  0  0
   -5.1158    0.2061   -1.3447 H   0  0  0  0  0  0  0  0  0  0  0  0
    1.5865    2.1175    1.9831 H   0  0  0  0  0  0  0  0  0  0  0  0
    2.1322    2.3791   -2.2845 H   0  0  0  0  0  0  0  0  0  0  0  0
   -4.0162   -1.7727    0.7284 H   0  0  0  0  0  0  0  0  0  0  0  0
   -3.5604   -0.0499    0.5354 H   0  0  0  0  0  0  0  0  0  0  0  0
    5.3830   -3.2481   -2.2104 H   0  0  0  0  0  0  0  0  0  0  0  0
    4.8358   -3.5161    2.0433 H   0  0  0  0  0  0  0  0  0  0  0  0
    0.0782    4.0703    1.9040 H   0  0  0  0  0  0  0  0  0  0  0  0
    0.6158    4.3295   -2.3514 H   0  0  0  0  0  0  0  0  0  0  0  0
    5.9310   -4.3103   -0.0363 H   0  0  0  0  0  0  0  0  0  0  0  0
   -0.4127    5.1797   -0.2599 H   0  0  0  0  0  0  0  0  0  0  0  0
   -7.3758    0.9935   -0.9373 H   0  0  0  0  0  0  0  0  0  0  0  0
   -7.9762   -0.6624   -0.7018 H   0  0  0  0  0  0  0  0  0  0  0  0
   -8.2043    0.5749    0.5535 H   0  0  0  0  0  0  0  0  0  0  0  0
   -7.2422   -0.9473    2.0854 H   0  0  0  0  0  0  0  0  0  0  0  0
   -6.6357   -2.1809    0.9728 H   0  0  0  0  0  0  0  0  0  0  0  0
   -5.5423   -1.2950    2.0761 H   0  0  0  0  0  0  0  0  0  0  0  0
  1 12  1  0  0  0  0
  1 20  1  0  0  0  0
  2 19  1  0  0  0  0
  2 27  1  0  0  0  0
  2 28  1  0  0  0  0
  3  4  2  0  0  0  0
  3  5  1  0  0  0  0
  3  7  1  0  0  0  0
  4  6  1  0  0  0  0
  4  8  1  0  0  0  0
  5  9  2  0  0  0  0
  5 10  1  0  0  0  0
  6 11  1  0  0  0  0
  6 29  1  0  0  0  0
  6 30  1  0  0  0  0
  7 15  2  0  0  0  0
  7 16  1  0  0  0  0
  8 17  2  0  0  0  0
  8 18  1  0  0  0  0
  9 13  1  0  0  0  0
  9 31  1  0  0  0  0
 10 14  2  0  0  0  0
 10 32  1  0  0  0  0
 11 33  1  0  0  0  0
 11 34  1  0  0  0  0
 11 35  1  0  0  0  0
 12 13  2  0  0  0  0
 12 14  1  0  0  0  0
 13 36  1  0  0  0  0
 14 37  1  0  0  0  0
 15 21  1  0  0  0  0
 15 38  1  0  0  0  0
 16 22  2  0  0  0  0
 16 39  1  0  0  0  0
 17 23  1  0  0  0  0
 17 42  1  0  0  0  0
 18 24  2  0  0  0  0
 18 43  1  0  0  0  0
 19 20  1  0  0  0  0
 19 40  1  0  0  0  0
 19 41  1  0  0  0  0
 20 44  1  0  0  0  0
 20 45  1  0  0  0  0
 21 25  2  0  0  0  0
 21 46  1  0  0  0  0
 22 25  1  0  0  0  0
 22 47  1  0  0  0  0
 23 26  2  0  0  0  0
 23 48  1  0  0  0  0
 24 26  1  0  0  0  0
 24 49  1  0  0  0  0
 25 50  1  0  0  0  0
 26 51  1  0  0  0  0
 27 52  1  0  0  0  0
 27 53  1  0  0  0  0
 27 54  1  0  0  0  0
 28 55  1  0  0  0  0
 28 56  1  0  0  0  0
 28 57  1  0  0  0  0
M  END
