DB00206
 OpenBabel07062211533D

 84 89  0  0  1  0  0  0  0  0999 V2000
   -1.4989    2.8438   -1.1321 O   0  0  0  0  0  0  0  0  0  0  0  0
   -2.7633    0.3395   -0.6444 O   0  0  0  0  0  0  0  0  0  0  0  0
    2.6399    3.0712   -0.8919 O   0  0  0  0  0  0  0  0  0  0  0  0
    0.8153    3.7291    0.3630 O   0  0  0  0  0  0  0  0  0  0  0  0
   -3.5711   -0.5956   -2.5866 O   0  0  0  0  0  0  0  0  0  0  0  0
    9.6089    0.3534    0.1593 O   0  0  0  0  0  0  0  0  0  0  0  0
   -8.5954   -0.1729   -1.4524 O   0  0  0  0  0  0  0  0  0  0  0  0
   -6.2589   -0.6416    2.7018 O   0  0  0  0  0  0  0  0  0  0  0  0
   -8.6419   -0.4739    1.3004 O   0  0  0  0  0  0  0  0  0  0  0  0
    1.7960   -2.2311    0.2793 N   0  0  1  0  0  0  0  0  0  0  0  0
    4.7853   -0.0247    0.8739 N   0  0  0  0  0  0  0  0  0  0  0  0
    1.4849    0.5103   -0.7937 C   0  0  2  0  0  0  0  0  0  0  0  0
    0.7785   -0.7020   -1.4312 C   0  0  1  0  0  0  0  0  0  0  0  0
    1.7307    0.2433    0.7047 C   0  0  0  0  0  0  0  0  0  0  0  0
    0.6821    1.7982   -1.0750 C   0  0  1  0  0  0  0  0  0  0  0  0
    2.4511   -1.0886    0.9745 C   0  0  2  0  0  0  0  0  0  0  0  0
    1.5713   -1.9880   -1.1541 C   0  0  0  0  0  0  0  0  0  0  0  0
   -0.6817   -0.8201   -0.9682 C   0  0  0  0  0  0  0  0  0  0  0  0
   -0.7862    1.7030   -0.6413 C   0  0  2  0  0  0  0  0  0  0  0  0
   -1.4667    0.4635   -1.2294 C   0  0  2  0  0  0  0  0  0  0  0  0
    3.9270   -1.0724    0.6946 C   0  0  2  0  0  0  0  0  0  0  0  0
    2.5493   -3.4909    0.4984 C   0  0  0  0  0  0  0  0  0  0  0  0
    4.6607   -2.1627    0.2717 C   0  0  0  0  0  0  0  0  0  0  0  0
    4.0122   -3.4747   -0.0108 C   0  0  0  0  0  0  0  0  0  0  0  0
    1.3575    2.9797   -0.4379 C   0  0  0  0  0  0  0  0  0  0  0  0
    6.0168   -1.7538    0.1583 C   0  0  0  0  0  0  0  0  0  0  0  0
    6.0672   -0.4093    0.5410 C   0  0  0  0  0  0  0  0  0  0  0  0
   -2.6990    3.0476   -0.4062 C   0  0  0  0  0  0  0  0  0  0  0  0
    7.2109   -2.3922   -0.2323 C   0  0  0  0  0  0  0  0  0  0  0  0
   -3.7209   -0.2080   -1.4382 C   0  0  0  0  0  0  0  0  0  0  0  0
    7.2579    0.3262    0.5532 C   0  0  0  0  0  0  0  0  0  0  0  0
    8.4078   -1.6672   -0.2259 C   0  0  0  0  0  0  0  0  0  0  0  0
    8.4286   -0.3289    0.1611 C   0  0  0  0  0  0  0  0  0  0  0  0
    3.4032    4.1599   -0.3629 C   0  0  0  0  0  0  0  0  0  0  0  0
   -5.0166   -0.2796   -0.7171 C   0  0  0  0  0  0  0  0  0  0  0  0
   -5.0361   -0.4303    0.6695 C   0  0  0  0  0  0  0  0  0  0  0  0
   -6.2149   -0.1937   -1.4259 C   0  0  0  0  0  0  0  0  0  0  0  0
   -7.4324   -0.2584   -0.7483 C   0  0  0  0  0  0  0  0  0  0  0  0
   -6.2535   -0.4948    1.3473 C   0  0  0  0  0  0  0  0  0  0  0  0
    9.5672    1.7195    0.5653 C   0  0  0  0  0  0  0  0  0  0  0  0
   -7.4517   -0.4088    0.6383 C   0  0  0  0  0  0  0  0  0  0  0  0
   -9.1585   -1.3952   -1.9246 C   0  0  0  0  0  0  0  0  0  0  0  0
   -4.9910   -0.7215    3.3498 C   0  0  0  0  0  0  0  0  0  0  0  0
   -9.1994    0.7582    1.7517 C   0  0  0  0  0  0  0  0  0  0  0  0
    2.4682    0.6064   -1.2752 H   0  0  0  0  0  0  0  0  0  0  0  0
    0.7663   -0.5542   -2.5204 H   0  0  0  0  0  0  0  0  0  0  0  0
    2.2929    1.0714    1.1507 H   0  0  0  0  0  0  0  0  0  0  0  0
    0.7722    0.2223    1.2381 H   0  0  0  0  0  0  0  0  0  0  0  0
    0.6942    1.9993   -2.1565 H   0  0  0  0  0  0  0  0  0  0  0  0
    2.3521   -1.2747    2.0538 H   0  0  0  0  0  0  0  0  0  0  0  0
    2.5193   -1.9253   -1.7026 H   0  0  0  0  0  0  0  0  0  0  0  0
    1.0214   -2.8360   -1.5818 H   0  0  0  0  0  0  0  0  0  0  0  0
   -0.7470   -1.0771    0.0963 H   0  0  0  0  0  0  0  0  0  0  0  0
   -1.1665   -1.6550   -1.4903 H   0  0  0  0  0  0  0  0  0  0  0  0
   -0.8388    1.6843    0.4556 H   0  0  0  0  0  0  0  0  0  0  0  0
   -1.5589    0.6205   -2.3135 H   0  0  0  0  0  0  0  0  0  0  0  0
    2.5535   -3.6957    1.5779 H   0  0  0  0  0  0  0  0  0  0  0  0
    2.0134   -4.3342    0.0458 H   0  0  0  0  0  0  0  0  0  0  0  0
    4.5724   -4.2860    0.4675 H   0  0  0  0  0  0  0  0  0  0  0  0
    4.0307   -3.6555   -1.0922 H   0  0  0  0  0  0  0  0  0  0  0  0
    4.5293    0.8974    1.1986 H   0  0  0  0  0  0  0  0  0  0  0  0
   -3.5450    2.6033   -0.9354 H   0  0  0  0  0  0  0  0  0  0  0  0
   -2.6571    2.7050    0.6327 H   0  0  0  0  0  0  0  0  0  0  0  0
   -2.8854    4.1263   -0.3842 H   0  0  0  0  0  0  0  0  0  0  0  0
    7.2102   -3.4351   -0.5362 H   0  0  0  0  0  0  0  0  0  0  0  0
    7.2104    1.3624    0.8642 H   0  0  0  0  0  0  0  0  0  0  0  0
    9.3282   -2.1612   -0.5275 H   0  0  0  0  0  0  0  0  0  0  0  0
    2.9378    5.1138   -0.6287 H   0  0  0  0  0  0  0  0  0  0  0  0
    3.4963    4.0633    0.7230 H   0  0  0  0  0  0  0  0  0  0  0  0
    4.4022    4.1207   -0.8051 H   0  0  0  0  0  0  0  0  0  0  0  0
   -4.0824   -0.5098    1.1790 H   0  0  0  0  0  0  0  0  0  0  0  0
   -6.2092   -0.0720   -2.5064 H   0  0  0  0  0  0  0  0  0  0  0  0
    8.9571    2.3241   -0.1145 H   0  0  0  0  0  0  0  0  0  0  0  0
    9.2519    1.8209    1.6093 H   0  0  0  0  0  0  0  0  0  0  0  0
   10.5899    2.1060    0.5031 H   0  0  0  0  0  0  0  0  0  0  0  0
   -8.4707   -1.8922   -2.6162 H   0  0  0  0  0  0  0  0  0  0  0  0
   -9.3952   -2.0596   -1.0876 H   0  0  0  0  0  0  0  0  0  0  0  0
  -10.0839   -1.1623   -2.4586 H   0  0  0  0  0  0  0  0  0  0  0  0
   -4.4323   -1.6102    3.0367 H   0  0  0  0  0  0  0  0  0  0  0  0
   -4.4142    0.2014    3.2260 H   0  0  0  0  0  0  0  0  0  0  0  0
   -5.1847   -0.8316    4.4220 H   0  0  0  0  0  0  0  0  0  0  0  0
  -10.1428    0.5414    2.2602 H   0  0  0  0  0  0  0  0  0  0  0  0
   -9.4030    1.4219    0.9055 H   0  0  0  0  0  0  0  0  0  0  0  0
   -8.5253    1.2497    2.4603 H   0  0  0  0  0  0  0  0  0  0  0  0
  1 19  1  0  0  0  0
  1 28  1  0  0  0  0
  2 20  1  0  0  0  0
  2 30  1  0  0  0  0
  3 25  1  0  0  0  0
  3 34  1  0  0  0  0
  4 25  2  0  0  0  0
  5 30  2  0  0  0  0
  6 33  1  0  0  0  0
  6 40  1  0  0  0  0
  7 38  1  0  0  0  0
  7 42  1  0  0  0  0
  8 39  1  0  0  0  0
  8 43  1  0  0  0  0
  9 41  1  0  0  0  0
  9 44  1  0  0  0  0
 10 16  1  6  0  0  0
 10 17  1  0  0  0  0
 10 22  1  0  0  0  0
 11 21  1  0  0  0  0
 11 27  2  0  0  0  0
 11 61  1  0  0  0  0
 12 13  1  6  0  0  0
 12 14  1  0  0  0  0
 12 45  1  0  0  0  0
 13 17  1  0  0  0  0
 13 18  1  0  0  0  0
 13 46  1  6  0  0  0
 14 16  1  0  0  0  0
 14 47  1  0  0  0  0
 14 48  1  0  0  0  0
 15 12  1  1  0  0  0
 15 25  1  0  0  0  0
 15 49  1  0  0  0  0
 16 50  1  1  0  0  0
 17 51  1  0  0  0  0
 17 52  1  0  0  0  0
 18 20  1  0  0  0  0
 18 53  1  0  0  0  0
 18 54  1  0  0  0  0
 19 15  1  6  0  0  0
 19 55  1  0  0  0  0
 20 19  1  1  0  0  0
 20 56  1  0  0  0  0
 21 16  1  1  0  0  0
 21 23  1  0  0  0  0
 22 24  1  0  0  0  0
 22 57  1  0  0  0  0
 22 58  1  0  0  0  0
 23 24  1  0  0  0  0
 23 26  2  0  0  0  0
 24 59  1  0  0  0  0
 24 60  1  0  0  0  0
 26 27  1  0  0  0  0
 26 29  1  0  0  0  0
 27 31  1  0  0  0  0
 28 62  1  0  0  0  0
 28 63  1  0  0  0  0
 28 64  1  0  0  0  0
 29 32  2  0  0  0  0
 29 65  1  0  0  0  0
 30 35  1  0  0  0  0
 31 33  2  0  0  0  0
 31 66  1  0  0  0  0
 32 33  1  0  0  0  0
 32 67  1  0  0  0  0
 34 68  1  0  0  0  0
 34 69  1  0  0  0  0
 34 70  1  0  0  0  0
 35 36  2  0  0  0  0
 35 37  1  0  0  0  0
 36 39  1  0  0  0  0
 36 71  1  0  0  0  0
 37 38  2  0  0  0  0
 37 72  1  0  0  0  0
 38 41  1  0  0  0  0
 39 41  2  0  0  0  0
 40 73  1  0  0  0  0
 40 74  1  0  0  0  0
 40 75  1  0  0  0  0
 42 76  1  0  0  0  0
 42 77  1  0  0  0  0
 42 78  1  0  0  0  0
 43 79  1  0  0  0  0
 43 80  1  0  0  0  0
 43 81  1  0  0  0  0
 44 82  1  0  0  0  0
 44 83  1  0  0  0  0
 44 84  1  0  0  0  0
M  END
