DB00536
 OpenBabel07062211533D

  9  8  0  0  0  0  0  0  0  0999 V2000
    1.3305    0.0983    0.0003 N   0  0  0  0  0  0  0  0  0  0  0  0
   -0.7700   -0.8283   -0.0003 N   0  0  0  0  0  0  0  0  0  0  0  0
   -0.5513    1.5096    0.0001 N   0  0  0  0  0  0  0  0  0  0  0  0
   -0.0217    0.3194    0.0000 C   0  0  0  0  0  0  0  0  0  0  0  0
    1.9887    0.8700    0.0002 H   0  0  0  0  0  0  0  0  0  0  0  0
    1.7137   -0.8407   -0.0007 H   0  0  0  0  0  0  0  0  0  0  0  0
   -1.7838   -0.7981   -0.0001 H   0  0  0  0  0  0  0  0  0  0  0  0
   -0.3332   -1.7436    0.0006 H   0  0  0  0  0  0  0  0  0  0  0  0
   -1.5729    1.4137   -0.0001 H   0  0  0  0  0  0  0  0  0  0  0  0
  1  4  1  0  0  0  0
  1  5  1  0  0  0  0
  1  6  1  0  0  0  0
  2  4  1  0  0  0  0
  2  7  1  0  0  0  0
  2  8  1  0  0  0  0
  3  4  2  0  0  0  0
  3  9  1  0  0  0  0
M  END
