DB00298
 OpenBabel07062211533D

 51 54  0  0  1  0  0  0  0  0999 V2000
    0.2781   -1.3154   -0.3788 N   0  0  0  0  0  0  0  0  0  0  0  0
    2.9424   -0.3631    0.0132 N   0  0  0  0  0  0  0  0  0  0  0  0
   -4.2400   -0.4130    0.1453 N   0  0  0  0  0  0  0  0  0  0  0  0
   -4.2074   -2.4954   -0.4909 N   0  0  0  0  0  0  0  0  0  0  0  0
   -5.4839   -2.0002   -0.6906 N   0  0  0  0  0  0  0  0  0  0  0  0
    0.5785   -0.3728    0.7057 C   0  0  0  0  0  0  0  0  0  0  0  0
    1.1464   -1.0440   -1.5311 C   0  0  0  0  0  0  0  0  0  0  0  0
   -1.1296   -1.2226   -0.7642 C   0  0  0  0  0  0  0  0  0  0  0  0
    2.0357   -0.4995    1.1571 C   0  0  0  0  0  0  0  0  0  0  0  0
    2.6220   -1.1941   -1.1542 C   0  0  0  0  0  0  0  0  0  0  0  0
   -2.0448   -1.5953    0.4039 C   0  0  0  0  0  0  0  0  0  0  0  0
   -3.8649    0.8684    0.6995 C   0  0  0  0  0  0  0  0  0  0  0  0
   -3.4764   -1.5253    0.0136 C   0  0  2  0  0  0  0  0  0  0  0  0
   -4.8846    1.9588    0.3644 C   0  0  0  0  0  0  0  0  0  0  0  0
   -6.3161    1.4494    0.5616 C   0  0  0  0  0  0  0  0  0  0  0  0
   -6.6012    0.2416   -0.3378 C   0  0  0  0  0  0  0  0  0  0  0  0
   -5.4898   -0.7429   -0.2992 C   0  0  0  0  0  0  0  0  0  0  0  0
    4.2815   -0.0172    0.2263 C   0  0  0  0  0  0  0  0  0  0  0  0
    4.8454    1.1511   -0.3274 C   0  0  0  0  0  0  0  0  0  0  0  0
    5.1122   -0.8418    1.0122 C   0  0  0  0  0  0  0  0  0  0  0  0
    6.1825    1.4800   -0.1043 C   0  0  0  0  0  0  0  0  0  0  0  0
    4.0098    2.0606   -1.1684 C   0  0  0  0  0  0  0  0  0  0  0  0
    6.4492   -0.5127    1.2354 C   0  0  0  0  0  0  0  0  0  0  0  0
    6.9844    0.6480    0.6771 C   0  0  0  0  0  0  0  0  0  0  0  0
   -0.0132   -0.5665    1.6034 H   0  0  0  0  0  0  0  0  0  0  0  0
    0.3778    0.6604    0.3916 H   0  0  0  0  0  0  0  0  0  0  0  0
    0.9692   -0.0322   -1.9208 H   0  0  0  0  0  0  0  0  0  0  0  0
    0.9277   -1.7493   -2.3420 H   0  0  0  0  0  0  0  0  0  0  0  0
   -1.3715   -0.2167   -1.1331 H   0  0  0  0  0  0  0  0  0  0  0  0
   -1.3266   -1.9156   -1.5931 H   0  0  0  0  0  0  0  0  0  0  0  0
    2.2431    0.2813    1.8994 H   0  0  0  0  0  0  0  0  0  0  0  0
    2.1958   -1.4705    1.6428 H   0  0  0  0  0  0  0  0  0  0  0  0
    2.8500   -2.2434   -0.9272 H   0  0  0  0  0  0  0  0  0  0  0  0
    3.2356   -0.9056   -2.0163 H   0  0  0  0  0  0  0  0  0  0  0  0
   -1.9104   -0.9534    1.2781 H   0  0  0  0  0  0  0  0  0  0  0  0
   -1.8217   -2.6182    0.7337 H   0  0  0  0  0  0  0  0  0  0  0  0
   -2.8796    1.1452    0.3123 H   0  0  0  0  0  0  0  0  0  0  0  0
   -3.7950    0.7331    1.7848 H   0  0  0  0  0  0  0  0  0  0  0  0
   -4.7561    2.2746   -0.6787 H   0  0  0  0  0  0  0  0  0  0  0  0
   -4.7048    2.8386    0.9917 H   0  0  0  0  0  0  0  0  0  0  0  0
   -7.0339    2.2482    0.3444 H   0  0  0  0  0  0  0  0  0  0  0  0
   -6.4565    1.1680    1.6131 H   0  0  0  0  0  0  0  0  0  0  0  0
   -6.7323    0.5794   -1.3726 H   0  0  0  0  0  0  0  0  0  0  0  0
   -7.5381   -0.2352   -0.0299 H   0  0  0  0  0  0  0  0  0  0  0  0
    4.7174   -1.7547    1.4529 H   0  0  0  0  0  0  0  0  0  0  0  0
    6.6158    2.3797   -0.5329 H   0  0  0  0  0  0  0  0  0  0  0  0
    4.5302    2.9983   -1.3921 H   0  0  0  0  0  0  0  0  0  0  0  0
    3.7651    1.5819   -2.1218 H   0  0  0  0  0  0  0  0  0  0  0  0
    3.0829    2.3274   -0.6492 H   0  0  0  0  0  0  0  0  0  0  0  0
    7.0740   -1.1611    1.8427 H   0  0  0  0  0  0  0  0  0  0  0  0
    8.0256    0.9036    0.8504 H   0  0  0  0  0  0  0  0  0  0  0  0
  1  6  1  0  0  0  0
  1  7  1  0  0  0  0
  1  8  1  0  0  0  0
  2  9  1  0  0  0  0
  2 10  1  0  0  0  0
  2 18  1  0  0  0  0
  3 12  1  0  0  0  0
  3 13  1  0  0  0  0
  3 17  2  0  0  0  0
  4  5  2  0  0  0  0
  4 13  1  0  0  0  0
  5 17  1  0  0  0  0
  6  9  1  0  0  0  0
  6 25  1  0  0  0  0
  6 26  1  0  0  0  0
  7 10  1  0  0  0  0
  7 27  1  0  0  0  0
  7 28  1  0  0  0  0
  8 11  1  0  0  0  0
  8 29  1  0  0  0  0
  8 30  1  0  0  0  0
  9 31  1  0  0  0  0
  9 32  1  0  0  0  0
 10 33  1  0  0  0  0
 10 34  1  0  0  0  0
 11 35  1  0  0  0  0
 11 36  1  0  0  0  0
 12 14  1  0  0  0  0
 12 37  1  0  0  0  0
 12 38  1  0  0  0  0
 13 11  1  1  0  0  0
 14 15  1  0  0  0  0
 14 39  1  0  0  0  0
 14 40  1  0  0  0  0
 15 16  1  0  0  0  0
 15 41  1  0  0  0  0
 15 42  1  0  0  0  0
 16 17  1  0  0  0  0
 16 43  1  0  0  0  0
 16 44  1  0  0  0  0
 18 19  2  0  0  0  0
 18 20  1  0  0  0  0
 19 21  1  0  0  0  0
 19 22  1  0  0  0  0
 20 23  2  0  0  0  0
 20 45  1  0  0  0  0
 21 24  2  0  0  0  0
 21 46  1  0  0  0  0
 22 47  1  0  0  0  0
 22 48  1  0  0  0  0
 22 49  1  0  0  0  0
 23 24  1  0  0  0  0
 23 50  1  0  0  0  0
 24 51  1  0  0  0  0
M  END
