DB00262
 OpenBabel07062211533D

 21 20  0  0  0  0  0  0  0  0999 V2000
   -4.4393    1.5610   -0.1579 Cl  0  0  0  0  0  0  0  0  0  0  0  0
    3.3034   -0.1868   -2.0615 Cl  0  0  0  0  0  0  0  0  0  0  0  0
    0.1579    1.0540    1.2134 O   0  0  0  0  0  0  0  0  0  0  0  0
   -2.1543   -2.4099   -0.7436 O   0  0  0  0  0  0  0  0  0  0  0  0
   -1.0670   -0.6594    0.2461 N   0  0  0  0  0  0  0  0  0  0  0  0
    1.2962   -0.7049    0.2667 N   0  0  0  0  0  0  0  0  0  0  0  0
   -1.0336   -1.9637   -0.4759 N   0  0  0  0  0  0  0  0  0  0  0  0
   -2.3634   -0.0648    0.5467 C   0  0  0  0  0  0  0  0  0  0  0  0
    2.6076   -0.1831    0.5776 C   0  0  0  0  0  0  0  0  0  0  0  0
    0.1303   -0.0280    0.6176 C   0  0  0  0  0  0  0  0  0  0  0  0
   -2.8575    0.8492   -0.5619 C   0  0  0  0  0  0  0  0  0  0  0  0
    3.1597    0.7035   -0.5257 C   0  0  0  0  0  0  0  0  0  0  0  0
   -3.0925   -0.8517    0.7728 H   0  0  0  0  0  0  0  0  0  0  0  0
   -2.2591    0.5212    1.4687 H   0  0  0  0  0  0  0  0  0  0  0  0
    2.5594    0.3815    1.5151 H   0  0  0  0  0  0  0  0  0  0  0  0
    3.2649   -1.0438    0.7438 H   0  0  0  0  0  0  0  0  0  0  0  0
    1.2561   -1.5842   -0.2353 H   0  0  0  0  0  0  0  0  0  0  0  0
   -2.9727    0.3024   -1.5028 H   0  0  0  0  0  0  0  0  0  0  0  0
   -2.1573    1.6723   -0.7358 H   0  0  0  0  0  0  0  0  0  0  0  0
    4.1547    1.0725   -0.2610 H   0  0  0  0  0  0  0  0  0  0  0  0
    2.5065    1.5626   -0.7071 H   0  0  0  0  0  0  0  0  0  0  0  0
  1 11  1  0  0  0  0
  2 12  1  0  0  0  0
  3 10  2  0  0  0  0
  4  7  2  0  0  0  0
  5  7  1  0  0  0  0
  5  8  1  0  0  0  0
  5 10  1  0  0  0  0
  6  9  1  0  0  0  0
  6 10  1  0  0  0  0
  6 17  1  0  0  0  0
  8 11  1  0  0  0  0
  8 13  1  0  0  0  0
  8 14  1  0  0  0  0
  9 12  1  0  0  0  0
  9 15  1  0  0  0  0
  9 16  1  0  0  0  0
 11 18  1  0  0  0  0
 11 19  1  0  0  0  0
 12 20  1  0  0  0  0
 12 21  1  0  0  0  0
M  END
