DB00830
 OpenBabel07062211533D

 28 29  0  0  1  0  0  0  0  0999 V2000
    0.9136    1.4509    0.5716 O   0  0  0  0  0  0  0  0  0  0  0  0
    2.6006   -0.7281   -0.1596 N   0  0  0  0  0  0  0  0  0  0  0  0
    1.1454   -0.9130   -0.0151 C   0  0  1  0  0  0  0  0  0  0  0  0
    0.4109    0.4202   -0.2942 C   0  0  1  0  0  0  0  0  0  0  0  0
    3.0626    0.3552    0.7095 C   0  0  0  0  0  0  0  0  0  0  0  0
    2.3163    1.6432    0.3968 C   0  0  0  0  0  0  0  0  0  0  0  0
   -1.0838    0.3389   -0.0632 C   0  0  0  0  0  0  0  0  0  0  0  0
    0.7110   -2.0269   -0.9698 C   0  0  0  0  0  0  0  0  0  0  0  0
   -1.9483    1.1421   -0.8061 C   0  0  0  0  0  0  0  0  0  0  0  0
   -1.5940   -0.5389    0.8926 C   0  0  0  0  0  0  0  0  0  0  0  0
   -3.3248    1.0676   -0.5931 C   0  0  0  0  0  0  0  0  0  0  0  0
   -2.9705   -0.6136    1.1056 C   0  0  0  0  0  0  0  0  0  0  0  0
   -3.8358    0.1897    0.3628 C   0  0  0  0  0  0  0  0  0  0  0  0
    0.9974   -1.2525    1.0155 H   0  0  0  0  0  0  0  0  0  0  0  0
    0.5884    0.7244   -1.3360 H   0  0  0  0  0  0  0  0  0  0  0  0
    2.8120   -0.4889   -1.1289 H   0  0  0  0  0  0  0  0  0  0  0  0
    4.1384    0.5005    0.5678 H   0  0  0  0  0  0  0  0  0  0  0  0
    2.9067    0.0691    1.7565 H   0  0  0  0  0  0  0  0  0  0  0  0
    2.6320    2.4343    1.0844 H   0  0  0  0  0  0  0  0  0  0  0  0
    2.5146    1.9921   -0.6239 H   0  0  0  0  0  0  0  0  0  0  0  0
    0.8605   -1.7368   -2.0162 H   0  0  0  0  0  0  0  0  0  0  0  0
    1.2926   -2.9390   -0.7913 H   0  0  0  0  0  0  0  0  0  0  0  0
   -0.3424   -2.2922   -0.8440 H   0  0  0  0  0  0  0  0  0  0  0  0
   -1.5620    1.8314   -1.5521 H   0  0  0  0  0  0  0  0  0  0  0  0
   -0.9664   -1.1638    1.5168 H   0  0  0  0  0  0  0  0  0  0  0  0
   -3.9985    1.6936   -1.1707 H   0  0  0  0  0  0  0  0  0  0  0  0
   -3.3689   -1.2921    1.8543 H   0  0  0  0  0  0  0  0  0  0  0  0
   -4.9074    0.1328    0.5300 H   0  0  0  0  0  0  0  0  0  0  0  0
  1  4  1  0  0  0  0
  1  6  1  0  0  0  0
  2  3  1  0  0  0  0
  2  5  1  0  0  0  0
  2 16  1  0  0  0  0
  3  4  1  6  0  0  0
  3  8  1  0  0  0  0
  3 14  1  0  0  0  0
  4  7  1  0  0  0  0
  4 15  1  6  0  0  0
  5  6  1  0  0  0  0
  5 17  1  0  0  0  0
  5 18  1  0  0  0  0
  6 19  1  0  0  0  0
  6 20  1  0  0  0  0
  7  9  2  0  0  0  0
  7 10  1  0  0  0  0
  8 21  1  0  0  0  0
  8 22  1  0  0  0  0
  8 23  1  0  0  0  0
  9 11  1  0  0  0  0
  9 24  1  0  0  0  0
 10 12  2  0  0  0  0
 10 25  1  0  0  0  0
 11 13  2  0  0  0  0
 11 26  1  0  0  0  0
 12 13  1  0  0  0  0
 12 27  1  0  0  0  0
 13 28  1  0  0  0  0
M  END
