DB00909
 OpenBabel07062211533D

 22 23  0  0  0  0  0  0  0  0999 V2000
    2.5748    0.0019   -0.8784 S   0  0  0  0  0  0  0  0  0  0  0  0
   -1.1709    2.3621    0.0775 O   0  0  0  0  0  0  0  0  0  0  0  0
    1.8849   -1.0736   -1.5649 O   0  0  0  0  0  0  0  0  0  0  0  0
    2.8213    1.2733   -1.5315 O   0  0  0  0  0  0  0  0  0  0  0  0
    0.1892    2.1874    0.3023 N   0  0  0  0  0  0  0  0  0  0  0  0
    4.0421   -0.5925   -0.2487 N   0  0  0  0  0  0  0  0  0  0  0  0
    1.7122    0.3243    0.6359 C   0  0  0  0  0  0  0  0  0  0  0  0
    0.3641    0.8656    0.3945 C   0  0  0  0  0  0  0  0  0  0  0  0
   -0.8402    0.1527    0.2376 C   0  0  0  0  0  0  0  0  0  0  0  0
   -1.7825    1.1468    0.0396 C   0  0  0  0  0  0  0  0  0  0  0  0
   -1.2534   -1.1876    0.2372 C   0  0  0  0  0  0  0  0  0  0  0  0
   -3.1391    0.9121   -0.1644 C   0  0  0  0  0  0  0  0  0  0  0  0
   -2.6136   -1.4610    0.0344 C   0  0  0  0  0  0  0  0  0  0  0  0
   -3.5371   -0.4289   -0.1624 C   0  0  0  0  0  0  0  0  0  0  0  0
    1.6581   -0.6184    1.1907 H   0  0  0  0  0  0  0  0  0  0  0  0
    2.3182    1.0292    1.2157 H   0  0  0  0  0  0  0  0  0  0  0  0
   -0.5479   -1.9985    0.3885 H   0  0  0  0  0  0  0  0  0  0  0  0
   -3.8468    1.7179   -0.3162 H   0  0  0  0  0  0  0  0  0  0  0  0
   -2.9553   -2.4930    0.0302 H   0  0  0  0  0  0  0  0  0  0  0  0
   -4.5852   -0.6732   -0.3170 H   0  0  0  0  0  0  0  0  0  0  0  0
    4.6726    0.0759    0.2110 H   0  0  0  0  0  0  0  0  0  0  0  0
    4.0346   -1.5222    0.1882 H   0  0  0  0  0  0  0  0  0  0  0  0
  1  3  2  0  0  0  0
  1  4  2  0  0  0  0
  1  6  1  0  0  0  0
  1  7  1  0  0  0  0
  2  5  1  0  0  0  0
  2 10  1  0  0  0  0
  5  8  2  0  0  0  0
  6 21  1  0  0  0  0
  6 22  1  0  0  0  0
  7  8  1  0  0  0  0
  7 15  1  0  0  0  0
  7 16  1  0  0  0  0
  8  9  1  0  0  0  0
  9 10  2  0  0  0  0
  9 11  1  0  0  0  0
 10 12  1  0  0  0  0
 11 13  2  0  0  0  0
 11 17  1  0  0  0  0
 12 14  2  0  0  0  0
 12 18  1  0  0  0  0
 13 14  1  0  0  0  0
 13 19  1  0  0  0  0
 14 20  1  0  0  0  0
M  END
