DB00473
 OpenBabel07062211533D

 42 43  0  0  1  0  0  0  0  0999 V2000
   -2.1895   -1.6752    0.2035 O   0  0  0  0  0  0  0  0  0  0  0  0
   -2.3211   -1.1765   -2.0400 O   0  0  0  0  0  0  0  0  0  0  0  0
    1.4713   -1.3246   -0.2367 N   0  0  0  0  0  0  0  0  0  0  0  0
    2.3163   -0.1575   -0.4820 C   0  0  0  0  0  0  0  0  0  0  0  0
    2.1846    0.8341    0.6794 C   0  0  0  0  0  0  0  0  0  0  0  0
    3.7719   -0.5983   -0.6700 C   0  0  0  0  0  0  0  0  0  0  0  0
    3.1128    2.0334    0.4951 C   0  0  0  0  0  0  0  0  0  0  0  0
    4.6980    0.6029   -0.8531 C   0  0  0  0  0  0  0  0  0  0  0  0
    4.5619    1.5984    0.2955 C   0  0  0  0  0  0  0  0  0  0  0  0
    0.0764   -0.9331   -0.1052 C   0  0  0  0  0  0  0  0  0  0  0  0
   -0.8425   -2.1382    0.1096 C   0  0  1  0  0  0  0  0  0  0  0  0
   -0.5300   -2.9083    1.3864 C   0  0  0  0  0  0  0  0  0  0  0  0
   -2.6622   -1.0044   -0.8800 C   0  0  0  0  0  0  0  0  0  0  0  0
   -3.6773   -0.0014   -0.4699 C   0  0  0  0  0  0  0  0  0  0  0  0
   -4.6882    0.3229   -1.3513 C   0  0  0  0  0  0  0  0  0  0  0  0
   -3.5784    0.5748    0.7800 C   0  0  0  0  0  0  0  0  0  0  0  0
   -5.6420    1.2649   -0.9661 C   0  0  0  0  0  0  0  0  0  0  0  0
   -4.5324    1.5168    1.1651 C   0  0  0  0  0  0  0  0  0  0  0  0
   -5.5641    1.8618    0.2920 C   0  0  0  0  0  0  0  0  0  0  0  0
    1.9934    0.3347   -1.4098 H   0  0  0  0  0  0  0  0  0  0  0  0
    2.4143    0.3416    1.6334 H   0  0  0  0  0  0  0  0  0  0  0  0
    1.1757    1.2501    0.7589 H   0  0  0  0  0  0  0  0  0  0  0  0
    3.8593   -1.2568   -1.5430 H   0  0  0  0  0  0  0  0  0  0  0  0
    4.1065   -1.1785    0.2004 H   0  0  0  0  0  0  0  0  0  0  0  0
    3.0437    2.6915    1.3689 H   0  0  0  0  0  0  0  0  0  0  0  0
    2.7855    2.6193   -0.3728 H   0  0  0  0  0  0  0  0  0  0  0  0
    4.4628    1.1038   -1.8003 H   0  0  0  0  0  0  0  0  0  0  0  0
    5.7365    0.2602   -0.9224 H   0  0  0  0  0  0  0  0  0  0  0  0
    5.1869    2.4766    0.0983 H   0  0  0  0  0  0  0  0  0  0  0  0
    4.9355    1.1411    1.2200 H   0  0  0  0  0  0  0  0  0  0  0  0
    1.5715   -1.9882   -1.0043 H   0  0  0  0  0  0  0  0  0  0  0  0
   -0.0900   -0.2812    0.7584 H   0  0  0  0  0  0  0  0  0  0  0  0
   -0.2221   -0.3614   -0.9901 H   0  0  0  0  0  0  0  0  0  0  0  0
   -0.7695   -2.8334   -0.7370 H   0  0  0  0  0  0  0  0  0  0  0  0
   -1.2558   -3.7166    1.5291 H   0  0  0  0  0  0  0  0  0  0  0  0
   -0.6100   -2.2584    2.2649 H   0  0  0  0  0  0  0  0  0  0  0  0
    0.4719   -3.3467    1.3640 H   0  0  0  0  0  0  0  0  0  0  0  0
   -4.7613   -0.1376   -2.3320 H   0  0  0  0  0  0  0  0  0  0  0  0
   -2.7778    0.3346    1.4731 H   0  0  0  0  0  0  0  0  0  0  0  0
   -6.4458    1.5331   -1.6454 H   0  0  0  0  0  0  0  0  0  0  0  0
   -4.4702    1.9842    2.1437 H   0  0  0  0  0  0  0  0  0  0  0  0
   -6.3065    2.5957    0.5917 H   0  0  0  0  0  0  0  0  0  0  0  0
  1 11  1  0  0  0  0
  1 13  1  0  0  0  0
  2 13  2  0  0  0  0
  3  4  1  0  0  0  0
  3 10  1  0  0  0  0
  3 31  1  0  0  0  0
  4  5  1  0  0  0  0
  4  6  1  0  0  0  0
  4 20  1  0  0  0  0
  5  7  1  0  0  0  0
  5 21  1  0  0  0  0
  5 22  1  0  0  0  0
  6  8  1  0  0  0  0
  6 23  1  0  0  0  0
  6 24  1  0  0  0  0
  7  9  1  0  0  0  0
  7 25  1  0  0  0  0
  7 26  1  0  0  0  0
  8  9  1  0  0  0  0
  8 27  1  0  0  0  0
  8 28  1  0  0  0  0
  9 29  1  0  0  0  0
  9 30  1  0  0  0  0
 10 11  1  0  0  0  0
 10 32  1  0  0  0  0
 10 33  1  0  0  0  0
 11 12  1  0  0  0  0
 11 34  1  6  0  0  0
 12 35  1  0  0  0  0
 12 36  1  0  0  0  0
 12 37  1  0  0  0  0
 13 14  1  0  0  0  0
 14 15  2  0  0  0  0
 14 16  1  0  0  0  0
 15 17  1  0  0  0  0
 15 38  1  0  0  0  0
 16 18  2  0  0  0  0
 16 39  1  0  0  0  0
 17 19  2  0  0  0  0
 17 40  1  0  0  0  0
 18 19  1  0  0  0  0
 18 41  1  0  0  0  0
 19 42  1  0  0  0  0
M  END
