DB00914
 OpenBabel07062211533D

 30 30  0  0  0  0  0  0  0  0999 V2000
    0.8169    1.0187   -0.6752 N   0  0  0  0  0  0  0  0  0  0  0  0
    2.8654    0.0876   -0.7393 N   0  0  0  0  0  0  0  0  0  0  0  0
    2.5813    2.0255    0.5926 N   0  0  0  0  0  0  0  0  0  0  0  0
    3.7586   -2.0511   -0.4804 N   0  0  0  0  0  0  0  0  0  0  0  0
    2.2967   -1.3292    1.1189 N   0  0  0  0  0  0  0  0  0  0  0  0
   -1.4884    1.8156   -0.8123 C   0  0  0  0  0  0  0  0  0  0  0  0
   -2.0887    0.4864   -0.4252 C   0  0  0  0  0  0  0  0  0  0  0  0
   -0.1062    2.0438   -0.2068 C   0  0  0  0  0  0  0  0  0  0  0  0
   -1.8507   -0.6245   -1.2195 C   0  0  0  0  0  0  0  0  0  0  0  0
   -2.8682    0.3993    0.7179 C   0  0  0  0  0  0  0  0  0  0  0  0
   -2.4059   -1.8531   -0.8618 C   0  0  0  0  0  0  0  0  0  0  0  0
   -3.4232   -0.8294    1.0759 C   0  0  0  0  0  0  0  0  0  0  0  0
   -3.1920   -1.9556    0.2860 C   0  0  0  0  0  0  0  0  0  0  0  0
    2.0394    1.0806   -0.2516 C   0  0  0  0  0  0  0  0  0  0  0  0
    2.9517   -1.0236   -0.0537 C   0  0  0  0  0  0  0  0  0  0  0  0
   -1.4310    1.8812   -1.9069 H   0  0  0  0  0  0  0  0  0  0  0  0
   -2.1611    2.6254   -0.5020 H   0  0  0  0  0  0  0  0  0  0  0  0
    0.2418    3.0388   -0.5096 H   0  0  0  0  0  0  0  0  0  0  0  0
   -0.1805    2.0204    0.8877 H   0  0  0  0  0  0  0  0  0  0  0  0
   -1.2421   -0.5564   -2.1167 H   0  0  0  0  0  0  0  0  0  0  0  0
   -3.0522    1.2703    1.3404 H   0  0  0  0  0  0  0  0  0  0  0  0
   -2.2263   -2.7300   -1.4769 H   0  0  0  0  0  0  0  0  0  0  0  0
   -4.0348   -0.9093    1.9697 H   0  0  0  0  0  0  0  0  0  0  0  0
   -3.6241   -2.9122    0.5647 H   0  0  0  0  0  0  0  0  0  0  0  0
    2.0341    2.7858    0.9798 H   0  0  0  0  0  0  0  0  0  0  0  0
    3.5603    1.9842    0.8552 H   0  0  0  0  0  0  0  0  0  0  0  0
    3.8346   -2.9174    0.0416 H   0  0  0  0  0  0  0  0  0  0  0  0
    4.3038   -1.9702   -1.3318 H   0  0  0  0  0  0  0  0  0  0  0  0
    1.6603   -0.6767    1.5632 H   0  0  0  0  0  0  0  0  0  0  0  0
    2.4304   -2.2247    1.5761 H   0  0  0  0  0  0  0  0  0  0  0  0
  1  8  1  0  0  0  0
  1 14  2  0  0  0  0
  2 14  1  0  0  0  0
  2 15  2  0  0  0  0
  3 14  1  0  0  0  0
  3 25  1  0  0  0  0
  3 26  1  0  0  0  0
  4 15  1  0  0  0  0
  4 27  1  0  0  0  0
  4 28  1  0  0  0  0
  5 15  1  0  0  0  0
  5 29  1  0  0  0  0
  5 30  1  0  0  0  0
  6  7  1  0  0  0  0
  6  8  1  0  0  0  0
  6 16  1  0  0  0  0
  6 17  1  0  0  0  0
  7  9  2  0  0  0  0
  7 10  1  0  0  0  0
  8 18  1  0  0  0  0
  8 19  1  0  0  0  0
  9 11  1  0  0  0  0
  9 20  1  0  0  0  0
 10 12  2  0  0  0  0
 10 21  1  0  0  0  0
 11 13  2  0  0  0  0
 11 22  1  0  0  0  0
 12 13  1  0  0  0  0
 12 23  1  0  0  0  0
 13 24  1  0  0  0  0
M  END
