DB00562
 OpenBabel07062211533D

 40 42  0  0  0  0  0  0  0  0999 V2000
   -5.0854   -3.1595    0.2044 Cl  0  0  0  0  0  0  0  0  0  0  0  0
   -2.0675    2.2960   -0.3359 S   0  0  0  0  0  0  0  0  0  0  0  0
   -6.5294   -0.6323   -1.2037 S   0  0  0  0  0  0  0  0  0  0  0  0
    2.2706    0.3632    0.1250 S   0  0  0  0  0  0  0  0  0  0  0  0
   -1.9116    2.5116   -1.7629 O   0  0  0  0  0  0  0  0  0  0  0  0
   -2.8217    3.2357    0.4738 O   0  0  0  0  0  0  0  0  0  0  0  0
   -6.6706    0.3875   -2.2308 O   0  0  0  0  0  0  0  0  0  0  0  0
   -6.8258   -2.0223   -1.5123 O   0  0  0  0  0  0  0  0  0  0  0  0
   -0.9727   -0.2094    0.9185 N   0  0  0  0  0  0  0  0  0  0  0  0
   -0.5956    2.0900    0.3296 N   0  0  0  0  0  0  0  0  0  0  0  0
   -7.4327   -0.1668    0.1686 N   0  0  0  0  0  0  0  0  0  0  0  0
   -2.9175    0.7574   -0.1836 C   0  0  0  0  0  0  0  0  0  0  0  0
   -2.2757   -0.3203    0.4252 C   0  0  0  0  0  0  0  0  0  0  0  0
   -4.2175    0.6629   -0.6814 C   0  0  0  0  0  0  0  0  0  0  0  0
   -4.8992   -0.5456   -0.5680 C   0  0  0  0  0  0  0  0  0  0  0  0
   -0.2389    0.9526    0.8415 C   0  0  0  0  0  0  0  0  0  0  0  0
   -2.9777   -1.5270    0.5299 C   0  0  0  0  0  0  0  0  0  0  0  0
   -4.2809   -1.6396    0.0368 C   0  0  0  0  0  0  0  0  0  0  0  0
    1.1522    0.8852    1.4314 C   0  0  0  0  0  0  0  0  0  0  0  0
    3.8182    0.3624    1.0640 C   0  0  0  0  0  0  0  0  0  0  0  0
    4.9936   -0.0472    0.2200 C   0  0  0  0  0  0  0  0  0  0  0  0
    5.7138    0.9209   -0.4677 C   0  0  0  0  0  0  0  0  0  0  0  0
    5.3444   -1.3884    0.1385 C   0  0  0  0  0  0  0  0  0  0  0  0
    6.8039    0.5409   -1.2508 C   0  0  0  0  0  0  0  0  0  0  0  0
    6.4344   -1.7683   -0.6445 C   0  0  0  0  0  0  0  0  0  0  0  0
    7.1641   -0.8037   -1.3392 C   0  0  0  0  0  0  0  0  0  0  0  0
   -4.6817    1.5307   -1.1409 H   0  0  0  0  0  0  0  0  0  0  0  0
   -0.5742   -1.0398    1.3439 H   0  0  0  0  0  0  0  0  0  0  0  0
   -2.4995   -2.3840    1.0014 H   0  0  0  0  0  0  0  0  0  0  0  0
    1.1730    0.1720    2.2611 H   0  0  0  0  0  0  0  0  0  0  0  0
    1.4403    1.8734    1.8035 H   0  0  0  0  0  0  0  0  0  0  0  0
    3.7216   -0.3178    1.9182 H   0  0  0  0  0  0  0  0  0  0  0  0
    3.9903    1.3634    1.4768 H   0  0  0  0  0  0  0  0  0  0  0  0
   -7.8823    0.7569    0.1532 H   0  0  0  0  0  0  0  0  0  0  0  0
   -7.9860   -0.8903    0.6437 H   0  0  0  0  0  0  0  0  0  0  0  0
    5.4417    1.9709   -0.4071 H   0  0  0  0  0  0  0  0  0  0  0  0
    4.7827   -2.1485    0.6745 H   0  0  0  0  0  0  0  0  0  0  0  0
    7.3719    1.2920   -1.7919 H   0  0  0  0  0  0  0  0  0  0  0  0
    6.7149   -2.8153   -0.7137 H   0  0  0  0  0  0  0  0  0  0  0  0
    8.0126   -1.0995   -1.9490 H   0  0  0  0  0  0  0  0  0  0  0  0
  1 18  1  0  0  0  0
  2  5  2  0  0  0  0
  2  6  2  0  0  0  0
  2 10  1  0  0  0  0
  2 12  1  0  0  0  0
  3  7  2  0  0  0  0
  3  8  2  0  0  0  0
  3 11  1  0  0  0  0
  3 15  1  0  0  0  0
  4 19  1  0  0  0  0
  4 20  1  0  0  0  0
  9 13  1  0  0  0  0
  9 16  1  0  0  0  0
  9 28  1  0  0  0  0
 10 16  2  0  0  0  0
 11 34  1  0  0  0  0
 11 35  1  0  0  0  0
 12 13  2  0  0  0  0
 12 14  1  0  0  0  0
 13 17  1  0  0  0  0
 14 15  2  0  0  0  0
 14 27  1  0  0  0  0
 15 18  1  0  0  0  0
 16 19  1  0  0  0  0
 17 18  2  0  0  0  0
 17 29  1  0  0  0  0
 19 30  1  0  0  0  0
 19 31  1  0  0  0  0
 20 21  1  0  0  0  0
 20 32  1  0  0  0  0
 20 33  1  0  0  0  0
 21 22  2  0  0  0  0
 21 23  1  0  0  0  0
 22 24  1  0  0  0  0
 22 36  1  0  0  0  0
 23 25  2  0  0  0  0
 23 37  1  0  0  0  0
 24 26  2  0  0  0  0
 24 38  1  0  0  0  0
 25 26  1  0  0  0  0
 25 39  1  0  0  0  0
 26 40  1  0  0  0  0
M  END
