DB00820
 OpenBabel07062211533D

 48 53  0  0  1  0  0  0  0  0999 V2000
    1.4042   -2.9319    1.9545 O   0  0  0  0  0  0  0  0  0  0  0  0
    2.1960   -0.7337   -2.8156 O   0  0  0  0  0  0  0  0  0  0  0  0
    2.7323    2.6034    1.9370 O   0  0  0  0  0  0  0  0  0  0  0  0
    2.5343    4.6763    0.7238 O   0  0  0  0  0  0  0  0  0  0  0  0
    0.7727   -1.0514   -0.9811 N   0  0  0  0  0  0  0  0  0  0  0  0
   -2.5164    0.7015   -1.2442 N   0  0  0  0  0  0  0  0  0  0  0  0
    2.6392   -2.7336   -0.0025 N   0  0  0  0  0  0  0  0  0  0  0  0
    0.2855   -2.0838   -0.0206 C   0  0  2  0  0  0  0  0  0  0  0  0
   -0.0408    0.1519   -1.3307 C   0  0  1  0  0  0  0  0  0  0  0  0
   -0.8256   -1.6271    0.9521 C   0  0  0  0  0  0  0  0  0  0  0  0
   -1.4189    0.0312   -0.7819 C   0  0  2  0  0  0  0  0  0  0  0  0
   -1.8128   -0.7785    0.2545 C   0  0  0  0  0  0  0  0  0  0  0  0
    1.4910   -2.5882    0.7762 C   0  0  0  0  0  0  0  0  0  0  0  0
   -3.2071   -0.5910    0.4489 C   0  0  0  0  0  0  0  0  0  0  0  0
    1.8647   -1.3635   -1.8117 C   0  0  0  0  0  0  0  0  0  0  0  0
    0.6355    1.3821   -0.8098 C   0  0  0  0  0  0  0  0  0  0  0  0
    2.5475   -2.6594   -1.4498 C   0  0  0  0  0  0  0  0  0  0  0  0
   -3.6245    0.3428   -0.5061 C   0  0  0  0  0  0  0  0  0  0  0  0
   -4.1613   -1.1200    1.3408 C   0  0  0  0  0  0  0  0  0  0  0  0
    1.3730    1.3144    0.3716 C   0  0  0  0  0  0  0  0  0  0  0  0
    0.5176    2.5873   -1.5193 C   0  0  0  0  0  0  0  0  0  0  0  0
   -4.9527    0.7704   -0.6116 C   0  0  0  0  0  0  0  0  0  0  0  0
    3.9263   -2.9591    0.6342 C   0  0  0  0  0  0  0  0  0  0  0  0
    1.9778    2.4738    0.8117 C   0  0  0  0  0  0  0  0  0  0  0  0
   -5.4929   -0.6995    1.2459 C   0  0  0  0  0  0  0  0  0  0  0  0
    1.1403    3.7471   -1.0519 C   0  0  0  0  0  0  0  0  0  0  0  0
   -5.8804    0.2305    0.2837 C   0  0  0  0  0  0  0  0  0  0  0  0
    1.8647    3.6574    0.1190 C   0  0  0  0  0  0  0  0  0  0  0  0
    3.0819    4.0012    1.8744 C   0  0  0  0  0  0  0  0  0  0  0  0
   -0.0923   -2.9172   -0.6284 H   0  0  0  0  0  0  0  0  0  0  0  0
   -0.0884    0.1931   -2.4269 H   0  0  0  0  0  0  0  0  0  0  0  0
   -0.3997   -1.0471    1.7811 H   0  0  0  0  0  0  0  0  0  0  0  0
   -1.3073   -2.5055    1.3979 H   0  0  0  0  0  0  0  0  0  0  0  0
   -2.5191    1.3633   -2.0083 H   0  0  0  0  0  0  0  0  0  0  0  0
    1.9594   -3.5044   -1.8207 H   0  0  0  0  0  0  0  0  0  0  0  0
    3.5510   -2.6811   -1.8853 H   0  0  0  0  0  0  0  0  0  0  0  0
    1.4792    0.4101    0.9574 H   0  0  0  0  0  0  0  0  0  0  0  0
   -3.8749   -1.8462    2.0960 H   0  0  0  0  0  0  0  0  0  0  0  0
   -0.0592    2.6318   -2.4397 H   0  0  0  0  0  0  0  0  0  0  0  0
   -5.2562    1.4951   -1.3599 H   0  0  0  0  0  0  0  0  0  0  0  0
    4.3147   -3.9258    0.3020 H   0  0  0  0  0  0  0  0  0  0  0  0
    3.8424   -2.9576    1.7240 H   0  0  0  0  0  0  0  0  0  0  0  0
    4.6115   -2.1633    0.3284 H   0  0  0  0  0  0  0  0  0  0  0  0
   -6.2324   -1.1048    1.9314 H   0  0  0  0  0  0  0  0  0  0  0  0
    1.0534    4.6815   -1.5945 H   0  0  0  0  0  0  0  0  0  0  0  0
   -6.9202    0.5427    0.2277 H   0  0  0  0  0  0  0  0  0  0  0  0
    4.1741    4.0887    1.8458 H   0  0  0  0  0  0  0  0  0  0  0  0
    2.7129    4.4960    2.7801 H   0  0  0  0  0  0  0  0  0  0  0  0
  1 13  2  0  0  0  0
  2 15  2  0  0  0  0
  3 24  1  0  0  0  0
  3 29  1  0  0  0  0
  4 28  1  0  0  0  0
  4 29  1  0  0  0  0
  5  8  1  0  0  0  0
  5  9  1  0  0  0  0
  5 15  1  0  0  0  0
  6 11  1  0  0  0  0
  6 18  2  0  0  0  0
  6 34  1  0  0  0  0
  7 13  1  0  0  0  0
  7 17  1  0  0  0  0
  7 23  1  0  0  0  0
  8 10  1  0  0  0  0
  8 13  1  0  0  0  0
  8 30  1  6  0  0  0
  9 16  1  0  0  0  0
  9 31  1  6  0  0  0
 10 12  1  0  0  0  0
 10 32  1  0  0  0  0
 10 33  1  0  0  0  0
 11  9  1  6  0  0  0
 11 12  1  0  0  0  0
 12 14  2  0  0  0  0
 14 18  1  0  0  0  0
 14 19  1  0  0  0  0
 15 17  1  0  0  0  0
 16 20  2  0  0  0  0
 16 21  1  0  0  0  0
 17 35  1  0  0  0  0
 17 36  1  0  0  0  0
 18 22  1  0  0  0  0
 19 25  2  0  0  0  0
 19 38  1  0  0  0  0
 20 24  1  0  0  0  0
 20 37  1  0  0  0  0
 21 26  2  0  0  0  0
 21 39  1  0  0  0  0
 22 27  2  0  0  0  0
 22 40  1  0  0  0  0
 23 41  1  0  0  0  0
 23 42  1  0  0  0  0
 23 43  1  0  0  0  0
 24 28  2  0  0  0  0
 25 27  1  0  0  0  0
 25 44  1  0  0  0  0
 26 28  1  0  0  0  0
 26 45  1  0  0  0  0
 27 46  1  0  0  0  0
 29 47  1  0  0  0  0
 29 48  1  0  0  0  0
M  END
