DB00425
 OpenBabel07062211533D

 44 46  0  0  0  0  0  0  0  0999 V2000
   -0.4830   -1.4572   -1.6374 O   0  0  0  0  0  0  0  0  0  0  0  0
   -1.9492    1.0034    0.0844 N   0  0  0  0  0  0  0  0  0  0  0  0
   -0.5390    2.6574   -0.4420 N   0  0  0  0  0  0  0  0  0  0  0  0
    0.0177   -3.1865   -0.1784 N   0  0  0  0  0  0  0  0  0  0  0  0
   -0.6834    0.5021    0.2500 C   0  0  0  0  0  0  0  0  0  0  0  0
    0.1619    1.5354   -0.0792 C   0  0  0  0  0  0  0  0  0  0  0  0
   -1.8085    2.3213   -0.3383 C   0  0  0  0  0  0  0  0  0  0  0  0
   -0.4089   -0.8798    0.6942 C   0  0  0  0  0  0  0  0  0  0  0  0
    1.5913    1.4715   -0.0560 C   0  0  0  0  0  0  0  0  0  0  0  0
   -3.1795    0.3817    0.2798 C   0  0  0  0  0  0  0  0  0  0  0  0
   -4.3126    1.0732    0.0537 C   0  0  0  0  0  0  0  0  0  0  0  0
   -3.0062    3.0540   -0.5779 C   0  0  0  0  0  0  0  0  0  0  0  0
   -0.2973   -1.8565   -0.4845 C   0  0  0  0  0  0  0  0  0  0  0  0
   -4.2013    2.4612   -0.3918 C   0  0  0  0  0  0  0  0  0  0  0  0
    2.2951    1.0719   -1.1950 C   0  0  0  0  0  0  0  0  0  0  0  0
    2.2906    1.8084    1.1059 C   0  0  0  0  0  0  0  0  0  0  0  0
   -5.6835    0.5043    0.2319 C   0  0  0  0  0  0  0  0  0  0  0  0
    4.3828    1.3463   -0.0105 C   0  0  0  0  0  0  0  0  0  0  0  0
    3.6884    1.0093   -1.1724 C   0  0  0  0  0  0  0  0  0  0  0  0
    3.6839    1.7460    1.1285 C   0  0  0  0  0  0  0  0  0  0  0  0
    0.1529   -4.2165   -1.2060 C   0  0  0  0  0  0  0  0  0  0  0  0
    0.2345   -3.6443    1.1888 C   0  0  0  0  0  0  0  0  0  0  0  0
    5.8724    1.2795    0.0137 C   0  0  0  0  0  0  0  0  0  0  0  0
   -1.1838   -1.2321    1.3822 H   0  0  0  0  0  0  0  0  0  0  0  0
    0.5432   -0.8940    1.2380 H   0  0  0  0  0  0  0  0  0  0  0  0
   -3.1902   -0.6510    0.6057 H   0  0  0  0  0  0  0  0  0  0  0  0
   -2.9423    4.0846   -0.9088 H   0  0  0  0  0  0  0  0  0  0  0  0
   -5.1168    3.0156   -0.5730 H   0  0  0  0  0  0  0  0  0  0  0  0
    1.7693    0.8053   -2.1091 H   0  0  0  0  0  0  0  0  0  0  0  0
    1.7612    2.1216    2.0029 H   0  0  0  0  0  0  0  0  0  0  0  0
   -6.2433    1.0756    0.9799 H   0  0  0  0  0  0  0  0  0  0  0  0
   -5.6499   -0.5380    0.5671 H   0  0  0  0  0  0  0  0  0  0  0  0
   -6.2376    0.5317   -0.7122 H   0  0  0  0  0  0  0  0  0  0  0  0
    4.2215    0.6946   -2.0656 H   0  0  0  0  0  0  0  0  0  0  0  0
    4.2135    2.0094    2.0403 H   0  0  0  0  0  0  0  0  0  0  0  0
    1.1628   -4.6335   -1.1577 H   0  0  0  0  0  0  0  0  0  0  0  0
   -0.5828   -5.0034   -1.0170 H   0  0  0  0  0  0  0  0  0  0  0  0
   -0.0156   -3.8006   -2.2025 H   0  0  0  0  0  0  0  0  0  0  0  0
    0.0891   -2.8824    1.9522 H   0  0  0  0  0  0  0  0  0  0  0  0
   -0.4600   -4.4657    1.3919 H   0  0  0  0  0  0  0  0  0  0  0  0
    1.2600   -4.0183    1.2666 H   0  0  0  0  0  0  0  0  0  0  0  0
    6.2935    1.4868   -0.9760 H   0  0  0  0  0  0  0  0  0  0  0  0
    6.2902    2.0229    0.7012 H   0  0  0  0  0  0  0  0  0  0  0  0
    6.1987    0.2846    0.3324 H   0  0  0  0  0  0  0  0  0  0  0  0
  1 13  2  0  0  0  0
  2  5  1  0  0  0  0
  2  7  1  0  0  0  0
  2 10  2  0  0  0  0
  3  6  1  0  0  0  0
  3  7  2  0  0  0  0
  4 13  1  0  0  0  0
  4 21  1  0  0  0  0
  4 22  1  0  0  0  0
  5  6  2  0  0  0  0
  5  8  1  0  0  0  0
  6  9  1  0  0  0  0
  7 12  2  0  0  0  0
  8 13  1  0  0  0  0
  8 24  1  0  0  0  0
  8 25  1  0  0  0  0
  9 15  2  0  0  0  0
  9 16  1  0  0  0  0
 10 11  1  0  0  0  0
 10 26  1  0  0  0  0
 11 14  2  0  0  0  0
 11 17  1  0  0  0  0
 12 14  1  0  0  0  0
 12 27  1  0  0  0  0
 14 28  1  0  0  0  0
 15 19  1  0  0  0  0
 15 29  1  0  0  0  0
 16 20  2  0  0  0  0
 16 30  1  0  0  0  0
 17 31  1  0  0  0  0
 17 32  1  0  0  0  0
 17 33  1  0  0  0  0
 18 19  2  0  0  0  0
 18 20  1  0  0  0  0
 18 23  1  0  0  0  0
 19 34  1  0  0  0  0
 20 35  1  0  0  0  0
 21 36  1  0  0  0  0
 21 37  1  0  0  0  0
 21 38  1  0  0  0  0
 22 39  1  0  0  0  0
 22 40  1  0  0  0  0
 22 41  1  0  0  0  0
 23 42  1  0  0  0  0
 23 43  1  0  0  0  0
 23 44  1  0  0  0  0
M  END
