DB00796
 OpenBabel07062211533D

 79 84  0  0  1  0  0  0  0  0999 V2000
   -2.6996    1.7918    0.1351 O   0  0  0  0  0  0  0  0  0  0  0  0
   -0.6135    2.5122    0.0047 O   0  0  0  0  0  0  0  0  0  0  0  0
   -1.9945    2.7865   -1.8208 O   0  0  0  0  0  0  0  0  0  0  0  0
    1.7397    2.8368   -0.0642 O   0  0  0  0  0  0  0  0  0  0  0  0
    5.0801   -2.0135   -0.5667 O   0  0  0  0  0  0  0  0  0  0  0  0
    2.9327    3.3906   -1.9558 O   0  0  0  0  0  0  0  0  0  0  0  0
    4.2536    0.2046   -0.5540 N   0  0  0  0  0  0  0  0  0  0  0  0
    6.0415   -0.2808    0.6740 N   0  0  0  0  0  0  0  0  0  0  0  0
   -2.4685   -4.0657   -0.9141 N   0  0  0  0  0  0  0  0  0  0  0  0
   -0.5249   -4.2143    0.2383 N   0  0  0  0  0  0  0  0  0  0  0  0
   -1.5730   -4.9011   -1.4589 N   0  0  0  0  0  0  0  0  0  0  0  0
   -0.4065   -5.0202   -0.8098 N   0  0  0  0  0  0  0  0  0  0  0  0
   -3.9944    1.5945   -0.4228 C   0  0  0  0  0  0  0  0  0  0  0  0
   -5.0458    1.6657    0.6834 C   0  0  0  0  0  0  0  0  0  0  0  0
   -4.0382    0.2543   -1.1558 C   0  0  0  0  0  0  0  0  0  0  0  0
   -6.4426    1.3634    0.1504 C   0  0  0  0  0  0  0  0  0  0  0  0
   -5.4347   -0.0483   -1.6889 C   0  0  0  0  0  0  0  0  0  0  0  0
   -6.4860    0.0253   -0.5840 C   0  0  0  0  0  0  0  0  0  0  0  0
   -1.7880    2.4038   -0.6771 C   0  0  0  0  0  0  0  0  0  0  0  0
    4.6071    1.3796    0.0582 C   0  0  0  0  0  0  0  0  0  0  0  0
    3.1468   -0.0040   -1.4606 C   0  0  0  0  0  0  0  0  0  0  0  0
    0.4808    3.1382   -0.6982 C   0  0  2  0  0  0  0  0  0  0  0  0
    5.7256    1.0505    0.8190 C   0  0  0  0  0  0  0  0  0  0  0  0
    4.0612    2.6630    0.0131 C   0  0  0  0  0  0  0  0  0  0  0  0
    5.1397   -0.7569   -0.1551 C   0  0  0  0  0  0  0  0  0  0  0  0
    1.8975   -0.3988   -0.7204 C   0  0  0  0  0  0  0  0  0  0  0  0
    6.3493    2.0485    1.5867 C   0  0  0  0  0  0  0  0  0  0  0  0
    2.8675    3.0055   -0.7992 C   0  0  0  0  0  0  0  0  0  0  0  0
    4.6949    3.6439    0.7831 C   0  0  0  0  0  0  0  0  0  0  0  0
    1.9181   -0.5190    0.6692 C   0  0  0  0  0  0  0  0  0  0  0  0
    0.7185   -0.6441   -1.4244 C   0  0  0  0  0  0  0  0  0  0  0  0
    0.2459    4.6409   -0.6434 C   0  0  0  0  0  0  0  0  0  0  0  0
    5.8187    3.3442    1.5566 C   0  0  0  0  0  0  0  0  0  0  0  0
   -0.4194   -1.1294    0.6508 C   0  0  0  0  0  0  0  0  0  0  0  0
    0.7596   -0.8842    1.3548 C   0  0  0  0  0  0  0  0  0  0  0  0
   -0.4399   -1.0094   -0.7387 C   0  0  0  0  0  0  0  0  0  0  0  0
   -1.6212   -1.5072    1.3619 C   0  0  0  0  0  0  0  0  0  0  0  0
    6.0527   -2.9525   -0.0957 C   0  0  0  0  0  0  0  0  0  0  0  0
   -2.2648   -2.7206    1.1189 C   0  0  0  0  0  0  0  0  0  0  0  0
   -2.1345   -0.6232    2.3110 C   0  0  0  0  0  0  0  0  0  0  0  0
   -3.4217   -3.0499    1.8251 C   0  0  0  0  0  0  0  0  0  0  0  0
    5.7588   -4.3104   -0.6968 C   0  0  0  0  0  0  0  0  0  0  0  0
   -3.2914   -0.9526    3.0171 C   0  0  0  0  0  0  0  0  0  0  0  0
   -1.7668   -3.6596    0.1471 C   0  0  0  0  0  0  0  0  0  0  0  0
   -3.9351   -2.1659    2.7742 C   0  0  0  0  0  0  0  0  0  0  0  0
   -4.2272    2.3990   -1.1343 H   0  0  0  0  0  0  0  0  0  0  0  0
   -4.7950    0.9610    1.4832 H   0  0  0  0  0  0  0  0  0  0  0  0
   -5.0272    2.6589    1.1480 H   0  0  0  0  0  0  0  0  0  0  0  0
   -3.3180    0.2505   -1.9818 H   0  0  0  0  0  0  0  0  0  0  0  0
   -3.7265   -0.5481   -0.4799 H   0  0  0  0  0  0  0  0  0  0  0  0
   -6.7544    2.1639   -0.5317 H   0  0  0  0  0  0  0  0  0  0  0  0
   -7.1594    1.3525    0.9790 H   0  0  0  0  0  0  0  0  0  0  0  0
   -5.4476   -1.0450   -2.1439 H   0  0  0  0  0  0  0  0  0  0  0  0
   -5.6864    0.6683   -2.4803 H   0  0  0  0  0  0  0  0  0  0  0  0
   -7.4828   -0.1280   -1.0126 H   0  0  0  0  0  0  0  0  0  0  0  0
   -6.3172   -0.7882    0.1326 H   0  0  0  0  0  0  0  0  0  0  0  0
    2.9986    0.8797   -2.0804 H   0  0  0  0  0  0  0  0  0  0  0  0
    3.4301   -0.8165   -2.1413 H   0  0  0  0  0  0  0  0  0  0  0  0
    0.5033    2.7704   -1.7316 H   0  0  0  0  0  0  0  0  0  0  0  0
    7.2229    1.8257    2.1912 H   0  0  0  0  0  0  0  0  0  0  0  0
    4.3115    4.6621    0.7862 H   0  0  0  0  0  0  0  0  0  0  0  0
    2.7939   -0.3468    1.2835 H   0  0  0  0  0  0  0  0  0  0  0  0
    0.6918   -0.5484   -2.5065 H   0  0  0  0  0  0  0  0  0  0  0  0
    6.2892    4.1278    2.1450 H   0  0  0  0  0  0  0  0  0  0  0  0
   -0.7008    4.9298   -1.1086 H   0  0  0  0  0  0  0  0  0  0  0  0
    1.0542    5.1906   -1.1353 H   0  0  0  0  0  0  0  0  0  0  0  0
    0.2124    4.9824    0.3977 H   0  0  0  0  0  0  0  0  0  0  0  0
    0.7986   -0.9787    2.4376 H   0  0  0  0  0  0  0  0  0  0  0  0
   -1.3470   -1.1799   -1.3118 H   0  0  0  0  0  0  0  0  0  0  0  0
    6.0045   -3.0134    0.9977 H   0  0  0  0  0  0  0  0  0  0  0  0
    7.0545   -2.6230   -0.3942 H   0  0  0  0  0  0  0  0  0  0  0  0
   -1.6544    0.3314    2.5145 H   0  0  0  0  0  0  0  0  0  0  0  0
   -3.9380   -3.9916    1.6530 H   0  0  0  0  0  0  0  0  0  0  0  0
    6.4845   -5.0542   -0.3567 H   0  0  0  0  0  0  0  0  0  0  0  0
    5.7877   -4.2620   -1.7903 H   0  0  0  0  0  0  0  0  0  0  0  0
    4.7534   -4.6446   -0.4200 H   0  0  0  0  0  0  0  0  0  0  0  0
   -3.6923   -0.2636    3.7546 H   0  0  0  0  0  0  0  0  0  0  0  0
   -4.8364   -2.4217    3.3235 H   0  0  0  0  0  0  0  0  0  0  0  0
   -1.7663   -5.4125   -2.3134 H   0  0  0  0  0  0  0  0  0  0  0  0
  1 13  1  0  0  0  0
  1 19  1  0  0  0  0
  2 19  1  0  0  0  0
  2 22  1  0  0  0  0
  3 19  2  0  0  0  0
  4 22  1  0  0  0  0
  4 28  1  0  0  0  0
  5 25  1  0  0  0  0
  5 38  1  0  0  0  0
  6 28  2  0  0  0  0
  7 20  1  0  0  0  0
  7 21  1  0  0  0  0
  7 25  1  0  0  0  0
  8 23  1  0  0  0  0
  8 25  2  0  0  0  0
  9 11  1  0  0  0  0
  9 44  2  0  0  0  0
 10 12  2  0  0  0  0
 10 44  1  0  0  0  0
 11 12  1  0  0  0  0
 11 79  1  0  0  0  0
 13 14  1  0  0  0  0
 13 15  1  0  0  0  0
 13 46  1  0  0  0  0
 14 16  1  0  0  0  0
 14 47  1  0  0  0  0
 14 48  1  0  0  0  0
 15 17  1  0  0  0  0
 15 49  1  0  0  0  0
 15 50  1  0  0  0  0
 16 18  1  0  0  0  0
 16 51  1  0  0  0  0
 16 52  1  0  0  0  0
 17 18  1  0  0  0  0
 17 53  1  0  0  0  0
 17 54  1  0  0  0  0
 18 55  1  0  0  0  0
 18 56  1  0  0  0  0
 20 23  2  0  0  0  0
 20 24  1  0  0  0  0
 21 26  1  0  0  0  0
 21 57  1  0  0  0  0
 21 58  1  0  0  0  0
 22 32  1  0  0  0  0
 22 59  1  6  0  0  0
 23 27  1  0  0  0  0
 24 28  1  0  0  0  0
 24 29  2  0  0  0  0
 26 30  2  0  0  0  0
 26 31  1  0  0  0  0
 27 33  2  0  0  0  0
 27 60  1  0  0  0  0
 29 33  1  0  0  0  0
 29 61  1  0  0  0  0
 30 35  1  0  0  0  0
 30 62  1  0  0  0  0
 31 36  2  0  0  0  0
 31 63  1  0  0  0  0
 32 65  1  0  0  0  0
 32 66  1  0  0  0  0
 32 67  1  0  0  0  0
 33 64  1  0  0  0  0
 34 35  2  0  0  0  0
 34 36  1  0  0  0  0
 34 37  1  0  0  0  0
 35 68  1  0  0  0  0
 36 69  1  0  0  0  0
 37 39  2  0  0  0  0
 37 40  1  0  0  0  0
 38 42  1  0  0  0  0
 38 70  1  0  0  0  0
 38 71  1  0  0  0  0
 39 41  1  0  0  0  0
 39 44  1  0  0  0  0
 40 43  2  0  0  0  0
 40 72  1  0  0  0  0
 41 45  2  0  0  0  0
 41 73  1  0  0  0  0
 42 74  1  0  0  0  0
 42 75  1  0  0  0  0
 42 76  1  0  0  0  0
 43 45  1  0  0  0  0
 43 77  1  0  0  0  0
 45 78  1  0  0  0  0
M  END
