DB00471
 OpenBabel07062211533D

 77 81  0  0  1  0  0  0  0  0999 V2000
  -10.5905    0.3603    1.7012 Cl  0  0  0  0  0  0  0  0  0  0  0  0
    1.6066    2.5269   -0.9085 S   0  0  0  0  0  0  0  0  0  0  0  0
    5.1336    4.5334   -2.4005 O   0  0  0  0  0  0  0  0  0  0  0  0
    5.1241    4.9647   -0.1658 O   0  0  0  0  0  0  0  0  0  0  0  0
    3.7535   -2.8016    1.6751 O   0  0  0  0  0  0  0  0  0  0  0  0
   -5.6967   -0.0182    0.4149 N   0  0  0  0  0  0  0  0  0  0  0  0
    2.2289    5.0993   -0.2993 C   0  0  0  0  0  0  0  0  0  0  0  0
    2.0512    6.2463    0.6518 C   0  0  0  0  0  0  0  0  0  0  0  0
    0.9250    5.8404   -0.2530 C   0  0  0  0  0  0  0  0  0  0  0  0
    2.2685    3.7207    0.2694 C   0  0  0  0  0  0  0  0  0  0  0  0
    3.1056    5.3055   -1.4843 C   0  0  0  0  0  0  0  0  0  0  0  0
    4.5461    4.9279   -1.2418 C   0  0  0  0  0  0  0  0  0  0  0  0
    1.8257    1.0185    0.1356 C   0  0  2  0  0  0  0  0  0  0  0  0
    2.0327   -0.2033   -0.8049 C   0  0  0  0  0  0  0  0  0  0  0  0
    0.7231    0.9072    1.1336 C   0  0  0  0  0  0  0  0  0  0  0  0
    2.4868   -1.4829   -0.0780 C   0  0  0  0  0  0  0  0  0  0  0  0
   -0.5873    0.6959    0.7046 C   0  0  0  0  0  0  0  0  0  0  0  0
    1.0022    1.0145    2.4961 C   0  0  0  0  0  0  0  0  0  0  0  0
    2.8278   -2.6484   -0.9705 C   0  0  0  0  0  0  0  0  0  0  0  0
    3.2519   -3.8637   -0.4333 C   0  0  0  0  0  0  0  0  0  0  0  0
   -1.6185    0.5923    1.6381 C   0  0  0  0  0  0  0  0  0  0  0  0
   -0.0290    0.9107    3.4295 C   0  0  0  0  0  0  0  0  0  0  0  0
    3.3818   -4.0475    1.0432 C   0  0  0  0  0  0  0  0  0  0  0  0
    2.7142   -2.4987   -2.3528 C   0  0  0  0  0  0  0  0  0  0  0  0
   -1.3394    0.6996    3.0005 C   0  0  0  0  0  0  0  0  0  0  0  0
    3.5627   -4.9292   -1.2781 C   0  0  0  0  0  0  0  0  0  0  0  0
    3.0248   -3.5643   -3.1977 C   0  0  0  0  0  0  0  0  0  0  0  0
   -3.0032    0.3698    1.1857 C   0  0  0  0  0  0  0  0  0  0  0  0
    4.4746   -5.0552    1.4797 C   0  0  0  0  0  0  0  0  0  0  0  0
    2.0324   -4.4751    1.6609 C   0  0  0  0  0  0  0  0  0  0  0  0
    3.4490   -4.7795   -2.6602 C   0  0  0  0  0  0  0  0  0  0  0  0
   -3.3597   -0.1240   -0.0237 C   0  0  0  0  0  0  0  0  0  0  0  0
   -4.7259   -0.3613   -0.4625 C   0  0  0  0  0  0  0  0  0  0  0  0
   -4.9653   -0.9062   -1.7077 C   0  0  0  0  0  0  0  0  0  0  0  0
   -6.9788   -0.2186    0.0561 C   0  0  0  0  0  0  0  0  0  0  0  0
   -6.2873   -1.1115   -2.0746 C   0  0  0  0  0  0  0  0  0  0  0  0
   -7.3240   -0.7701   -1.1956 C   0  0  0  0  0  0  0  0  0  0  0  0
   -8.0090    0.1203    0.9290 C   0  0  0  0  0  0  0  0  0  0  0  0
   -8.6730   -0.9657   -1.5370 C   0  0  0  0  0  0  0  0  0  0  0  0
   -9.3503   -0.0741    0.5897 C   0  0  0  0  0  0  0  0  0  0  0  0
   -9.6832   -0.6179   -0.6447 C   0  0  0  0  0  0  0  0  0  0  0  0
    2.5516    7.1842    0.4413 H   0  0  0  0  0  0  0  0  0  0  0  0
    1.9464    6.0373    1.7100 H   0  0  0  0  0  0  0  0  0  0  0  0
    0.6737    6.5046   -1.0718 H   0  0  0  0  0  0  0  0  0  0  0  0
    0.0644    5.3648    0.2029 H   0  0  0  0  0  0  0  0  0  0  0  0
    3.2834    3.4326    0.5563 H   0  0  0  0  0  0  0  0  0  0  0  0
    1.6617    3.6747    1.1807 H   0  0  0  0  0  0  0  0  0  0  0  0
    2.7260    4.7337   -2.3389 H   0  0  0  0  0  0  0  0  0  0  0  0
    3.1091    6.3573   -1.7985 H   0  0  0  0  0  0  0  0  0  0  0  0
    2.7809    1.1516    0.6595 H   0  0  0  0  0  0  0  0  0  0  0  0
    1.1096   -0.4058   -1.3637 H   0  0  0  0  0  0  0  0  0  0  0  0
    2.8069    0.0757   -1.5334 H   0  0  0  0  0  0  0  0  0  0  0  0
    6.0725    4.2824   -2.2675 H   0  0  0  0  0  0  0  0  0  0  0  0
    3.3961   -1.1520    0.4319 H   0  0  0  0  0  0  0  0  0  0  0  0
    1.7127   -1.7603    0.6421 H   0  0  0  0  0  0  0  0  0  0  0  0
   -0.7841    0.6359   -0.3616 H   0  0  0  0  0  0  0  0  0  0  0  0
    2.0176    1.1789    2.8468 H   0  0  0  0  0  0  0  0  0  0  0  0
    0.1884    0.9939    4.4904 H   0  0  0  0  0  0  0  0  0  0  0  0
    2.3826   -1.5846   -2.8316 H   0  0  0  0  0  0  0  0  0  0  0  0
   -2.1301    0.6200    3.7425 H   0  0  0  0  0  0  0  0  0  0  0  0
    3.8786   -5.8969   -0.9037 H   0  0  0  0  0  0  0  0  0  0  0  0
    2.9339   -3.4497   -4.2740 H   0  0  0  0  0  0  0  0  0  0  0  0
    5.4416   -4.8011    1.0298 H   0  0  0  0  0  0  0  0  0  0  0  0
    4.2249   -6.0883    1.2178 H   0  0  0  0  0  0  0  0  0  0  0  0
    4.6221   -5.0214    2.5662 H   0  0  0  0  0  0  0  0  0  0  0  0
    1.2412   -3.7433    1.4703 H   0  0  0  0  0  0  0  0  0  0  0  0
    1.6989   -5.4393    1.2609 H   0  0  0  0  0  0  0  0  0  0  0  0
    2.1118   -4.5648    2.7507 H   0  0  0  0  0  0  0  0  0  0  0  0
   -3.7672    0.6230    1.9176 H   0  0  0  0  0  0  0  0  0  0  0  0
    3.6862   -5.6103   -3.3184 H   0  0  0  0  0  0  0  0  0  0  0  0
    3.7394   -2.9324    2.6386 H   0  0  0  0  0  0  0  0  0  0  0  0
   -2.5985   -0.4067   -0.7455 H   0  0  0  0  0  0  0  0  0  0  0  0
   -4.1650   -1.1716   -2.3904 H   0  0  0  0  0  0  0  0  0  0  0  0
   -6.5050   -1.5398   -3.0504 H   0  0  0  0  0  0  0  0  0  0  0  0
   -7.7588    0.5474    1.8996 H   0  0  0  0  0  0  0  0  0  0  0  0
   -8.9442   -1.3906   -2.5011 H   0  0  0  0  0  0  0  0  0  0  0  0
  -10.7207   -0.7763   -0.9260 H   0  0  0  0  0  0  0  0  0  0  0  0
  1 40  1  0  0  0  0
  2 10  1  0  0  0  0
  2 13  1  0  0  0  0
  3 12  1  0  0  0  0
  3 53  1  0  0  0  0
  4 12  2  0  0  0  0
  5 23  1  0  0  0  0
  5 71  1  0  0  0  0
  6 33  2  0  0  0  0
  6 35  1  0  0  0  0
  7  8  1  0  0  0  0
  7  9  1  0  0  0  0
  7 10  1  0  0  0  0
  7 11  1  0  0  0  0
  8  9  1  0  0  0  0
  8 42  1  0  0  0  0
  8 43  1  0  0  0  0
  9 44  1  0  0  0  0
  9 45  1  0  0  0  0
 10 46  1  0  0  0  0
 10 47  1  0  0  0  0
 11 12  1  0  0  0  0
 11 48  1  0  0  0  0
 11 49  1  0  0  0  0
 13 14  1  0  0  0  0
 13 15  1  0  0  0  0
 13 50  1  1  0  0  0
 14 16  1  0  0  0  0
 14 51  1  0  0  0  0
 14 52  1  0  0  0  0
 15 17  2  0  0  0  0
 15 18  1  0  0  0  0
 16 19  1  0  0  0  0
 16 54  1  0  0  0  0
 16 55  1  0  0  0  0
 17 21  1  0  0  0  0
 17 56  1  0  0  0  0
 18 22  2  0  0  0  0
 18 57  1  0  0  0  0
 19 20  2  0  0  0  0
 19 24  1  0  0  0  0
 20 23  1  0  0  0  0
 20 26  1  0  0  0  0
 21 25  2  0  0  0  0
 21 28  1  0  0  0  0
 22 25  1  0  0  0  0
 22 58  1  0  0  0  0
 23 29  1  0  0  0  0
 23 30  1  0  0  0  0
 24 27  2  0  0  0  0
 24 59  1  0  0  0  0
 25 60  1  0  0  0  0
 26 31  2  0  0  0  0
 26 61  1  0  0  0  0
 27 31  1  0  0  0  0
 27 62  1  0  0  0  0
 28 32  2  0  0  0  0
 28 69  1  0  0  0  0
 29 63  1  0  0  0  0
 29 64  1  0  0  0  0
 29 65  1  0  0  0  0
 30 66  1  0  0  0  0
 30 67  1  0  0  0  0
 30 68  1  0  0  0  0
 31 70  1  0  0  0  0
 32 33  1  0  0  0  0
 32 72  1  0  0  0  0
 33 34  1  0  0  0  0
 34 36  2  0  0  0  0
 34 73  1  0  0  0  0
 35 37  2  0  0  0  0
 35 38  1  0  0  0  0
 36 37  1  0  0  0  0
 36 74  1  0  0  0  0
 37 39  1  0  0  0  0
 38 40  2  0  0  0  0
 38 75  1  0  0  0  0
 39 41  2  0  0  0  0
 39 76  1  0  0  0  0
 40 41  1  0  0  0  0
 41 77  1  0  0  0  0
M  END
