DB00794
 OpenBabel07062211533D

 30 31  0  0  0  0  0  0  0  0999 V2000
    1.4699    0.2552    2.3027 O   0  0  0  0  0  0  0  0  0  0  0  0
    1.5332    0.1528   -2.2736 O   0  0  0  0  0  0  0  0  0  0  0  0
    1.2523   -1.7680    1.2486 N   0  0  0  0  0  0  0  0  0  0  0  0
    1.3018   -1.8204   -1.1292 N   0  0  0  0  0  0  0  0  0  0  0  0
    0.6242    0.2665    0.0001 C   0  0  0  0  0  0  0  0  0  0  0  0
    1.0903    1.7386   -0.0326 C   0  0  0  0  0  0  0  0  0  0  0  0
   -0.9193    0.2762   -0.0094 C   0  0  0  0  0  0  0  0  0  0  0  0
    1.1659   -0.3882    1.2988 C   0  0  0  0  0  0  0  0  0  0  0  0
    1.2083   -0.4448   -1.2480 C   0  0  0  0  0  0  0  0  0  0  0  0
    0.8779   -2.5015    0.0671 C   0  0  0  0  0  0  0  0  0  0  0  0
    2.6013    1.8332   -0.0588 C   0  0  0  0  0  0  0  0  0  0  0  0
   -1.6114    0.3501    1.1925 C   0  0  0  0  0  0  0  0  0  0  0  0
   -1.5977    0.2113   -1.2195 C   0  0  0  0  0  0  0  0  0  0  0  0
   -3.0062    0.3590    1.1839 C   0  0  0  0  0  0  0  0  0  0  0  0
   -2.9925    0.2203   -1.2279 C   0  0  0  0  0  0  0  0  0  0  0  0
   -3.6966    0.2943   -0.0261 C   0  0  0  0  0  0  0  0  0  0  0  0
    0.7171    2.2860    0.8432 H   0  0  0  0  0  0  0  0  0  0  0  0
    0.6883    2.2599   -0.9114 H   0  0  0  0  0  0  0  0  0  0  0  0
    1.3549   -3.4845    0.0987 H   0  0  0  0  0  0  0  0  0  0  0  0
   -0.2093   -2.6208    0.0473 H   0  0  0  0  0  0  0  0  0  0  0  0
    1.5537   -2.2742    2.0754 H   0  0  0  0  0  0  0  0  0  0  0  0
    1.6322   -2.3628   -1.9213 H   0  0  0  0  0  0  0  0  0  0  0  0
    3.0854    1.3394    0.7872 H   0  0  0  0  0  0  0  0  0  0  0  0
    3.0508    1.4448   -0.9753 H   0  0  0  0  0  0  0  0  0  0  0  0
    2.8897    2.8898   -0.0057 H   0  0  0  0  0  0  0  0  0  0  0  0
   -1.1102    0.4205    2.1518 H   0  0  0  0  0  0  0  0  0  0  0  0
   -1.0857    0.1694   -2.1748 H   0  0  0  0  0  0  0  0  0  0  0  0
   -3.5551    0.4209    2.1192 H   0  0  0  0  0  0  0  0  0  0  0  0
   -3.5307    0.1739   -2.1701 H   0  0  0  0  0  0  0  0  0  0  0  0
   -4.7826    0.3032   -0.0328 H   0  0  0  0  0  0  0  0  0  0  0  0
  1  8  2  0  0  0  0
  2  9  2  0  0  0  0
  3  8  1  0  0  0  0
  3 10  1  0  0  0  0
  3 21  1  0  0  0  0
  4  9  1  0  0  0  0
  4 10  1  0  0  0  0
  4 22  1  0  0  0  0
  5  6  1  0  0  0  0
  5  7  1  0  0  0  0
  5  8  1  0  0  0  0
  5  9  1  0  0  0  0
  6 11  1  0  0  0  0
  6 17  1  0  0  0  0
  6 18  1  0  0  0  0
  7 12  2  0  0  0  0
  7 13  1  0  0  0  0
 10 19  1  0  0  0  0
 10 20  1  0  0  0  0
 11 23  1  0  0  0  0
 11 24  1  0  0  0  0
 11 25  1  0  0  0  0
 12 14  1  0  0  0  0
 12 26  1  0  0  0  0
 13 15  2  0  0  0  0
 13 27  1  0  0  0  0
 14 16  2  0  0  0  0
 14 28  1  0  0  0  0
 15 16  1  0  0  0  0
 15 29  1  0  0  0  0
 16 30  1  0  0  0  0
M  END
