DB00929
 OpenBabel07062211533D

 65 65  0  0  1  0  0  0  0  0999 V2000
   -4.7978    3.5915   -0.5167 O   0  0  0  0  0  0  0  0  0  0  0  0
   -0.3228    4.5171    0.5733 O   0  0  0  0  0  0  0  0  0  0  0  0
   -3.4901   -2.4955   -2.5793 O   0  0  0  0  0  0  0  0  0  0  0  0
    8.0667   -0.4798    0.1528 O   0  0  0  0  0  0  0  0  0  0  0  0
    6.8528   -0.7670   -1.7875 O   0  0  0  0  0  0  0  0  0  0  0  0
   -1.4441    2.3779    0.3286 C   0  0  1  0  0  0  0  0  0  0  0  0
   -2.8369    2.1878   -0.2912 C   0  0  2  0  0  0  0  0  0  0  0  0
   -3.6597    3.3438    0.2934 C   0  0  1  0  0  0  0  0  0  0  0  0
   -2.7121    4.5409    0.2653 C   0  0  0  0  0  0  0  0  0  0  0  0
   -0.3265    1.7753   -0.5044 C   0  0  0  0  0  0  0  0  0  0  0  0
   -1.3608    3.8888    0.4058 C   0  0  0  0  0  0  0  0  0  0  0  0
   -3.4225    0.8456    0.0104 C   0  0  0  0  0  0  0  0  0  0  0  0
    0.9852    1.7112    0.2784 C   0  0  0  0  0  0  0  0  0  0  0  0
    2.0995    1.0723   -0.5522 C   0  0  0  0  0  0  0  0  0  0  0  0
   -3.7983   -0.0333   -0.9301 C   0  0  0  0  0  0  0  0  0  0  0  0
   -3.5696   -2.5832   -1.1534 C   0  0  2  0  0  0  0  0  0  0  0  0
   -4.3941   -1.3818   -0.6251 C   0  0  0  0  0  0  0  0  0  0  0  0
    3.4028    0.9784    0.2439 C   0  0  0  0  0  0  0  0  0  0  0  0
   -2.1347   -2.4925   -0.5764 C   0  0  0  0  0  0  0  0  0  0  0  0
   -4.2326   -3.9211   -0.8084 C   0  0  0  0  0  0  0  0  0  0  0  0
    4.5082    0.3080   -0.5780 C   0  0  0  0  0  0  0  0  0  0  0  0
   -2.0517   -2.5347    0.9553 C   0  0  0  0  0  0  0  0  0  0  0  0
   -0.6096   -2.3538    1.4341 C   0  0  0  0  0  0  0  0  0  0  0  0
    5.8161    0.1744    0.2017 C   0  0  0  0  0  0  0  0  0  0  0  0
   -0.5212   -2.3614    2.9519 C   0  0  0  0  0  0  0  0  0  0  0  0
    6.9399   -0.4215   -0.6172 C   0  0  0  0  0  0  0  0  0  0  0  0
    9.2321   -0.9962   -0.4982 C   0  0  0  0  0  0  0  0  0  0  0  0
   -1.4275    1.9935    1.3569 H   0  0  0  0  0  0  0  0  0  0  0  0
   -2.7776    2.3222   -1.3819 H   0  0  0  0  0  0  0  0  0  0  0  0
   -3.9898    3.1298    1.3176 H   0  0  0  0  0  0  0  0  0  0  0  0
   -2.7624    5.0866   -0.6815 H   0  0  0  0  0  0  0  0  0  0  0  0
   -2.9049    5.2190    1.1002 H   0  0  0  0  0  0  0  0  0  0  0  0
   -0.1758    2.3570   -1.4225 H   0  0  0  0  0  0  0  0  0  0  0  0
   -0.5985    0.7584   -0.8111 H   0  0  0  0  0  0  0  0  0  0  0  0
   -3.5470    0.5843    1.0588 H   0  0  0  0  0  0  0  0  0  0  0  0
    1.3072    2.7101    0.5880 H   0  0  0  0  0  0  0  0  0  0  0  0
    0.8350    1.1253    1.1937 H   0  0  0  0  0  0  0  0  0  0  0  0
    1.7906    0.0683   -0.8683 H   0  0  0  0  0  0  0  0  0  0  0  0
    2.2653    1.6617   -1.4620 H   0  0  0  0  0  0  0  0  0  0  0  0
   -3.6836    0.2259   -1.9797 H   0  0  0  0  0  0  0  0  0  0  0  0
   -5.3789   -1.3980   -1.1122 H   0  0  0  0  0  0  0  0  0  0  0  0
   -4.5968   -1.4890    0.4468 H   0  0  0  0  0  0  0  0  0  0  0  0
   -5.2440    4.3777   -0.1584 H   0  0  0  0  0  0  0  0  0  0  0  0
    3.2325    0.4035    1.1623 H   0  0  0  0  0  0  0  0  0  0  0  0
    3.7258    1.9823    0.5447 H   0  0  0  0  0  0  0  0  0  0  0  0
   -1.6304   -1.5956   -0.9579 H   0  0  0  0  0  0  0  0  0  0  0  0
   -1.5448   -3.3244   -0.9862 H   0  0  0  0  0  0  0  0  0  0  0  0
   -4.3942   -4.0388    0.2669 H   0  0  0  0  0  0  0  0  0  0  0  0
   -5.2051   -4.0091   -1.3063 H   0  0  0  0  0  0  0  0  0  0  0  0
   -3.6244   -4.7594   -1.1660 H   0  0  0  0  0  0  0  0  0  0  0  0
    4.6848    0.8895   -1.4918 H   0  0  0  0  0  0  0  0  0  0  0  0
    4.1766   -0.6866   -0.9016 H   0  0  0  0  0  0  0  0  0  0  0  0
   -2.6622   -1.7484    1.4071 H   0  0  0  0  0  0  0  0  0  0  0  0
   -2.4321   -3.4933    1.3250 H   0  0  0  0  0  0  0  0  0  0  0  0
   -4.3959   -2.5163   -2.9324 H   0  0  0  0  0  0  0  0  0  0  0  0
    0.0197   -3.1558    1.0312 H   0  0  0  0  0  0  0  0  0  0  0  0
   -0.2083   -1.4057    1.0577 H   0  0  0  0  0  0  0  0  0  0  0  0
    5.6558   -0.4657    1.0766 H   0  0  0  0  0  0  0  0  0  0  0  0
    6.1384    1.1650    0.5427 H   0  0  0  0  0  0  0  0  0  0  0  0
    0.5178   -2.2330    3.2713 H   0  0  0  0  0  0  0  0  0  0  0  0
   -0.8887   -3.3075    3.3617 H   0  0  0  0  0  0  0  0  0  0  0  0
   -1.1118   -1.5467    3.3833 H   0  0  0  0  0  0  0  0  0  0  0  0
    9.0588   -2.0264   -0.8234 H   0  0  0  0  0  0  0  0  0  0  0  0
    9.5033   -0.3625   -1.3479 H   0  0  0  0  0  0  0  0  0  0  0  0
   10.0549   -0.9891    0.2217 H   0  0  0  0  0  0  0  0  0  0  0  0
  1  8  1  0  0  0  0
  1 43  1  0  0  0  0
  2 11  2  0  0  0  0
  3 55  1  0  0  0  0
  4 26  1  0  0  0  0
  4 27  1  0  0  0  0
  5 26  2  0  0  0  0
  6  7  1  6  0  0  0
  6 10  1  0  0  0  0
  6 11  1  0  0  0  0
  6 28  1  0  0  0  0
  7  8  1  1  0  0  0
  7 12  1  0  0  0  0
  7 29  1  0  0  0  0
  8  9  1  0  0  0  0
  8 30  1  1  0  0  0
  9 11  1  0  0  0  0
  9 31  1  0  0  0  0
  9 32  1  0  0  0  0
 10 13  1  0  0  0  0
 10 33  1  0  0  0  0
 10 34  1  0  0  0  0
 12 15  2  0  0  0  0
 12 35  1  0  0  0  0
 13 14  1  0  0  0  0
 13 36  1  0  0  0  0
 13 37  1  0  0  0  0
 14 18  1  0  0  0  0
 14 38  1  0  0  0  0
 14 39  1  0  0  0  0
 15 17  1  0  0  0  0
 15 40  1  0  0  0  0
 16  3  1  6  0  0  0
 16 17  1  0  0  0  0
 16 19  1  0  0  0  0
 16 20  1  0  0  0  0
 17 41  1  0  0  0  0
 17 42  1  0  0  0  0
 18 21  1  0  0  0  0
 18 44  1  0  0  0  0
 18 45  1  0  0  0  0
 19 22  1  0  0  0  0
 19 46  1  0  0  0  0
 19 47  1  0  0  0  0
 20 48  1  0  0  0  0
 20 49  1  0  0  0  0
 20 50  1  0  0  0  0
 21 24  1  0  0  0  0
 21 51  1  0  0  0  0
 21 52  1  0  0  0  0
 22 23  1  0  0  0  0
 22 53  1  0  0  0  0
 22 54  1  0  0  0  0
 23 25  1  0  0  0  0
 23 56  1  0  0  0  0
 23 57  1  0  0  0  0
 24 26  1  0  0  0  0
 24 58  1  0  0  0  0
 24 59  1  0  0  0  0
 25 60  1  0  0  0  0
 25 61  1  0  0  0  0
 25 62  1  0  0  0  0
 27 63  1  0  0  0  0
 27 64  1  0  0  0  0
 27 65  1  0  0  0  0
M  END
