DB00272
 OpenBabel07062211533D

 17 17  0  0  0  0  0  0  0  0999 V2000
   -1.4320    1.2164    0.0764 N   0  0  0  0  0  0  0  0  0  0  0  0
    2.9587   -0.1284   -0.3390 N   0  0  0  0  0  0  0  0  0  0  0  0
   -2.7378    1.0511   -0.1950 N   0  0  0  0  0  0  0  0  0  0  0  0
    0.6794    0.0132    0.5906 C   0  0  0  0  0  0  0  0  0  0  0  0
   -0.7870    0.0482    0.2752 C   0  0  0  0  0  0  0  0  0  0  0  0
    1.5395   -0.0724   -0.6727 C   0  0  0  0  0  0  0  0  0  0  0  0
   -1.6901   -0.9518    0.1337 C   0  0  0  0  0  0  0  0  0  0  0  0
   -2.8895   -0.2754   -0.1588 C   0  0  0  0  0  0  0  0  0  0  0  0
    0.9504    0.9052    1.1705 H   0  0  0  0  0  0  0  0  0  0  0  0
    0.8798   -0.8514    1.2370 H   0  0  0  0  0  0  0  0  0  0  0  0
    1.3588    0.7951   -1.3177 H   0  0  0  0  0  0  0  0  0  0  0  0
    1.2762   -0.9627   -1.2552 H   0  0  0  0  0  0  0  0  0  0  0  0
   -1.5246   -2.0152    0.2239 H   0  0  0  0  0  0  0  0  0  0  0  0
   -1.0627    2.1591    0.1053 H   0  0  0  0  0  0  0  0  0  0  0  0
   -3.8678   -0.6940   -0.3472 H   0  0  0  0  0  0  0  0  0  0  0  0
    3.1356   -0.9306    0.2646 H   0  0  0  0  0  0  0  0  0  0  0  0
    3.2129    0.6934    0.2081 H   0  0  0  0  0  0  0  0  0  0  0  0
  1  3  1  0  0  0  0
  1  5  2  0  0  0  0
  1 14  1  0  0  0  0
  2  6  1  0  0  0  0
  2 16  1  0  0  0  0
  2 17  1  0  0  0  0
  3  8  1  0  0  0  0
  4  5  1  0  0  0  0
  4  6  1  0  0  0  0
  4  9  1  0  0  0  0
  4 10  1  0  0  0  0
  5  7  1  0  0  0  0
  6 11  1  0  0  0  0
  6 12  1  0  0  0  0
  7  8  2  0  0  0  0
  7 13  1  0  0  0  0
  8 15  1  0  0  0  0
M  END
