DB00694
 OpenBabel07062211533D

 67 71  0  0  1  0  0  0  0  0999 V2000
   -1.5872    0.6351    0.3399 O   0  0  0  0  0  0  0  0  0  0  0  0
   -3.7705    1.2192    1.0604 O   0  0  0  0  0  0  0  0  0  0  0  0
   -2.4967   -1.7383   -0.9251 O   0  0  0  0  0  0  0  0  0  0  0  0
   -5.1658    3.3699   -0.2626 O   0  0  0  0  0  0  0  0  0  0  0  0
    1.1392    1.3099    1.5202 O   0  0  0  0  0  0  0  0  0  0  0  0
    1.8817   -3.6599   -0.7626 O   0  0  0  0  0  0  0  0  0  0  0  0
   -3.7657   -3.5916    1.4754 O   0  0  0  0  0  0  0  0  0  0  0  0
    3.6028    1.7341    1.1809 O   0  0  0  0  0  0  0  0  0  0  0  0
    4.3158   -3.0733   -1.0391 O   0  0  0  0  0  0  0  0  0  0  0  0
    6.0869    2.3139    0.9314 O   0  0  0  0  0  0  0  0  0  0  0  0
   -2.8930    4.1985   -1.7841 N   0  0  0  0  0  0  0  0  0  0  0  0
   -1.0996   -0.3173    1.2827 C   0  0  1  0  0  0  0  0  0  0  0  0
   -2.0813   -2.4191    0.2523 C   0  0  2  0  0  0  0  0  0  0  0  0
   -2.1063   -1.4615    1.4457 C   0  0  0  0  0  0  0  0  0  0  0  0
   -0.6889   -3.0305    0.0647 C   0  0  0  0  0  0  0  0  0  0  0  0
    0.2574   -0.7812    0.8147 C   0  0  0  0  0  0  0  0  0  0  0  0
    0.4425   -2.0390    0.2158 C   0  0  0  0  0  0  0  0  0  0  0  0
   -2.4011    1.6185    0.9724 C   0  0  2  0  0  0  0  0  0  0  0  0
   -2.2619    2.9525    0.2367 C   0  0  0  0  0  0  0  0  0  0  0  0
   -2.9463    2.8906   -1.1337 C   0  0  1  0  0  0  0  0  0  0  0  0
   -4.3951    2.4060   -0.9822 C   0  0  1  0  0  0  0  0  0  0  0  0
   -4.4195    1.0784   -0.2103 C   0  0  2  0  0  0  0  0  0  0  0  0
    1.3561    0.0847    0.9521 C   0  0  0  0  0  0  0  0  0  0  0  0
   -3.0883   -3.5159    0.4516 C   0  0  0  0  0  0  0  0  0  0  0  0
    1.7264   -2.4179   -0.2114 C   0  0  0  0  0  0  0  0  0  0  0  0
    2.6294   -0.2983    0.5157 C   0  0  0  0  0  0  0  0  0  0  0  0
    2.8148   -1.5506   -0.0646 C   0  0  0  0  0  0  0  0  0  0  0  0
   -5.8390    0.5900    0.0589 C   0  0  0  0  0  0  0  0  0  0  0  0
   -3.2294   -4.5159   -0.6640 C   0  0  0  0  0  0  0  0  0  0  0  0
    3.7673    0.6302    0.6765 C   0  0  0  0  0  0  0  0  0  0  0  0
    4.1534   -1.9732   -0.5257 C   0  0  0  0  0  0  0  0  0  0  0  0
    5.1075    0.2072    0.2216 C   0  0  0  0  0  0  0  0  0  0  0  0
    5.2940   -1.0494   -0.3582 C   0  0  0  0  0  0  0  0  0  0  0  0
    6.1960    1.0742    0.3742 C   0  0  0  0  0  0  0  0  0  0  0  0
    6.5690   -1.4393   -0.7851 C   0  0  0  0  0  0  0  0  0  0  0  0
    7.4650    0.6817   -0.0523 C   0  0  0  0  0  0  0  0  0  0  0  0
    7.6513   -0.5723   -0.6308 C   0  0  0  0  0  0  0  0  0  0  0  0
    5.8018    3.3969    0.0490 C   0  0  0  0  0  0  0  0  0  0  0  0
   -0.9724    0.1242    2.2810 H   0  0  0  0  0  0  0  0  0  0  0  0
   -1.8543   -2.0205    2.3582 H   0  0  0  0  0  0  0  0  0  0  0  0
   -3.1160   -1.0651    1.5888 H   0  0  0  0  0  0  0  0  0  0  0  0
   -0.6314   -3.4708   -0.9388 H   0  0  0  0  0  0  0  0  0  0  0  0
   -0.5345   -3.8274    0.8045 H   0  0  0  0  0  0  0  0  0  0  0  0
   -2.0609    1.8018    1.9986 H   0  0  0  0  0  0  0  0  0  0  0  0
   -1.2016    3.2044    0.1130 H   0  0  0  0  0  0  0  0  0  0  0  0
   -2.7256    3.7415    0.8430 H   0  0  0  0  0  0  0  0  0  0  0  0
   -2.4047    2.1793   -1.7695 H   0  0  0  0  0  0  0  0  0  0  0  0
   -4.8531    2.2826   -1.9713 H   0  0  0  0  0  0  0  0  0  0  0  0
   -3.9007    0.3131   -0.7944 H   0  0  0  0  0  0  0  0  0  0  0  0
   -2.2341   -2.2562   -1.7041 H   0  0  0  0  0  0  0  0  0  0  0  0
   -5.8092   -0.4003    0.5272 H   0  0  0  0  0  0  0  0  0  0  0  0
   -6.3667    1.2429    0.7621 H   0  0  0  0  0  0  0  0  0  0  0  0
   -6.4180    0.5161   -0.8663 H   0  0  0  0  0  0  0  0  0  0  0  0
   -1.9279    4.5241   -1.8222 H   0  0  0  0  0  0  0  0  0  0  0  0
   -3.4000    4.8825   -1.2236 H   0  0  0  0  0  0  0  0  0  0  0  0
   -3.5270   -4.0243   -1.5924 H   0  0  0  0  0  0  0  0  0  0  0  0
   -2.3016   -5.0739   -0.8042 H   0  0  0  0  0  0  0  0  0  0  0  0
   -4.0140   -5.2323   -0.4002 H   0  0  0  0  0  0  0  0  0  0  0  0
   -6.1049    3.1593   -0.3986 H   0  0  0  0  0  0  0  0  0  0  0  0
    0.2259    1.5975    1.3691 H   0  0  0  0  0  0  0  0  0  0  0  0
    1.2207   -4.2783   -0.4139 H   0  0  0  0  0  0  0  0  0  0  0  0
    6.7400   -2.4117   -1.2391 H   0  0  0  0  0  0  0  0  0  0  0  0
    8.3161    1.3478    0.0636 H   0  0  0  0  0  0  0  0  0  0  0  0
    8.6402   -0.8756   -0.9619 H   0  0  0  0  0  0  0  0  0  0  0  0
    6.7010    3.6608   -0.5164 H   0  0  0  0  0  0  0  0  0  0  0  0
    5.5019    4.2596    0.6501 H   0  0  0  0  0  0  0  0  0  0  0  0
    4.9898    3.1519   -0.6433 H   0  0  0  0  0  0  0  0  0  0  0  0
  1 12  1  0  0  0  0
  1 18  1  0  0  0  0
  2 18  1  0  0  0  0
  2 22  1  0  0  0  0
  3 50  1  0  0  0  0
  4 21  1  0  0  0  0
  4 59  1  0  0  0  0
  5 23  1  0  0  0  0
  5 60  1  0  0  0  0
  6 25  1  0  0  0  0
  6 61  1  0  0  0  0
  7 24  2  0  0  0  0
  8 30  2  0  0  0  0
  9 31  2  0  0  0  0
 10 34  1  0  0  0  0
 10 38  1  0  0  0  0
 11 20  1  0  0  0  0
 11 54  1  0  0  0  0
 11 55  1  0  0  0  0
 12 14  1  0  0  0  0
 12 16  1  0  0  0  0
 12 39  1  1  0  0  0
 13  3  1  6  0  0  0
 13 14  1  0  0  0  0
 13 15  1  0  0  0  0
 13 24  1  0  0  0  0
 14 40  1  0  0  0  0
 14 41  1  0  0  0  0
 15 17  1  0  0  0  0
 15 42  1  0  0  0  0
 15 43  1  0  0  0  0
 16 17  2  0  0  0  0
 16 23  1  0  0  0  0
 17 25  1  0  0  0  0
 18 19  1  0  0  0  0
 18 44  1  1  0  0  0
 19 20  1  0  0  0  0
 19 45  1  0  0  0  0
 19 46  1  0  0  0  0
 20 21  1  1  0  0  0
 20 47  1  0  0  0  0
 21 22  1  1  0  0  0
 21 48  1  0  0  0  0
 22 28  1  0  0  0  0
 22 49  1  6  0  0  0
 23 26  2  0  0  0  0
 24 29  1  0  0  0  0
 25 27  2  0  0  0  0
 26 27  1  0  0  0  0
 26 30  1  0  0  0  0
 27 31  1  0  0  0  0
 28 51  1  0  0  0  0
 28 52  1  0  0  0  0
 28 53  1  0  0  0  0
 29 56  1  0  0  0  0
 29 57  1  0  0  0  0
 29 58  1  0  0  0  0
 30 32  1  0  0  0  0
 31 33  1  0  0  0  0
 32 33  2  0  0  0  0
 32 34  1  0  0  0  0
 33 35  1  0  0  0  0
 34 36  2  0  0  0  0
 35 37  2  0  0  0  0
 35 62  1  0  0  0  0
 36 37  1  0  0  0  0
 36 63  1  0  0  0  0
 37 64  1  0  0  0  0
 38 65  1  0  0  0  0
 38 66  1  0  0  0  0
 38 67  1  0  0  0  0
M  END
