DB00339
 OpenBabel07062211533D

 14 14  0  0  0  0  0  0  0  0999 V2000
    2.2231    1.5922    0.0109 O   0  0  0  0  0  0  0  0  0  0  0  0
   -0.1990   -0.9757    0.0003 N   0  0  0  0  0  0  0  0  0  0  0  0
   -1.9315    1.2300   -0.0015 N   0  0  0  0  0  0  0  0  0  0  0  0
    2.4911   -0.6853   -0.0022 N   0  0  0  0  0  0  0  0  0  0  0  0
    0.2593    0.2919   -0.0015 C   0  0  0  0  0  0  0  0  0  0  0  0
   -0.5916    1.3752   -0.0024 C   0  0  0  0  0  0  0  0  0  0  0  0
    1.6998    0.4618   -0.0032 C   0  0  0  0  0  0  0  0  0  0  0  0
   -1.5389   -1.1208    0.0016 C   0  0  0  0  0  0  0  0  0  0  0  0
   -2.3900   -0.0376    0.0006 C   0  0  0  0  0  0  0  0  0  0  0  0
   -0.2408    2.4006   -0.0043 H   0  0  0  0  0  0  0  0  0  0  0  0
   -1.9079   -2.1391    0.0034 H   0  0  0  0  0  0  0  0  0  0  0  0
   -3.4665   -0.1552    0.0015 H   0  0  0  0  0  0  0  0  0  0  0  0
    2.0891   -1.6173   -0.0061 H   0  0  0  0  0  0  0  0  0  0  0  0
    3.5037   -0.6208    0.0030 H   0  0  0  0  0  0  0  0  0  0  0  0
  1  7  2  0  0  0  0
  2  5  2  0  0  0  0
  2  8  1  0  0  0  0
  3  6  2  0  0  0  0
  3  9  1  0  0  0  0
  4  7  1  0  0  0  0
  4 13  1  0  0  0  0
  4 14  1  0  0  0  0
  5  6  1  0  0  0  0
  5  7  1  0  0  0  0
  6 10  1  0  0  0  0
  8  9  2  0  0  0  0
  8 11  1  0  0  0  0
  9 12  1  0  0  0  0
M  END
