DB00279
 OpenBabel07062211533D

 35 36  0  0  1  0  0  0  0  0999 V2000
    1.0694    1.3034    3.1896 I   0  0  0  0  0  0  0  0  0  0  0  0
    1.1911    2.1168   -2.8578 I   0  0  0  0  0  0  0  0  0  0  0  0
    2.7083   -3.3826   -0.4965 I   0  0  0  0  0  0  0  0  0  0  0  0
    2.1793    1.9362    0.2171 O   0  0  0  0  0  0  0  0  0  0  0  0
   -3.5641   -1.2780    2.0412 O   0  0  0  0  0  0  0  0  0  0  0  0
   -2.2692   -2.5082    0.6137 O   0  0  0  0  0  0  0  0  0  0  0  0
    5.7571   -2.2296   -0.2797 O   0  0  0  0  0  0  0  0  0  0  0  0
   -5.0803   -0.9052   -0.4618 N   0  3  0  0  0  0  0  0  0  0  0  0
   -3.3340    0.7441   -0.0537 C   0  0  0  0  0  0  0  0  0  0  0  0
   -3.6047   -0.7506   -0.2611 C   0  0  1  0  0  0  0  0  0  0  0  0
   -1.8595    1.0635    0.0187 C   0  0  0  0  0  0  0  0  0  0  0  0
   -1.1733    1.3676   -1.1455 C   0  0  0  0  0  0  0  0  0  0  0  0
   -1.2210    1.0454    1.2482 C   0  0  0  0  0  0  0  0  0  0  0  0
   -3.0906   -1.5965    0.9135 C   0  0  0  0  0  0  0  0  0  0  0  0
    0.8459    1.6476    0.1516 C   0  0  0  0  0  0  0  0  0  0  0  0
    0.1410    1.3392    1.3151 C   0  0  0  0  0  0  0  0  0  0  0  0
    0.1887    1.6618   -1.0788 C   0  0  0  0  0  0  0  0  0  0  0  0
    3.0676    0.8843    0.0925 C   0  0  0  0  0  0  0  0  0  0  0  0
    2.5770   -0.3970   -0.0924 C   0  0  0  0  0  0  0  0  0  0  0  0
    4.4272    1.1372    0.1538 C   0  0  0  0  0  0  0  0  0  0  0  0
    3.4739   -1.4579   -0.2198 C   0  0  0  0  0  0  0  0  0  0  0  0
    5.3238    0.0766    0.0263 C   0  0  0  0  0  0  0  0  0  0  0  0
    4.8473   -1.2209   -0.1608 C   0  0  0  0  0  0  0  0  0  0  0  0
   -3.8269    1.1097    0.8576 H   0  0  0  0  0  0  0  0  0  0  0  0
   -3.7811    1.3246   -0.8726 H   0  0  0  0  0  0  0  0  0  0  0  0
   -3.1470   -1.0965   -1.1954 H   0  0  0  0  0  0  0  0  0  0  0  0
   -5.3294   -1.8888   -0.6311 H   0  0  0  0  0  0  0  0  0  0  0  0
   -5.4115   -0.3634   -1.2712 H   0  0  0  0  0  0  0  0  0  0  0  0
   -5.6104   -0.5908    0.3620 H   0  0  0  0  0  0  0  0  0  0  0  0
   -1.6976    1.3722   -2.0978 H   0  0  0  0  0  0  0  0  0  0  0  0
   -1.7805    0.8165    2.1511 H   0  0  0  0  0  0  0  0  0  0  0  0
    1.5199   -0.6329   -0.1451 H   0  0  0  0  0  0  0  0  0  0  0  0
    4.7997    2.1468    0.2988 H   0  0  0  0  0  0  0  0  0  0  0  0
    6.3923    0.2689    0.0736 H   0  0  0  0  0  0  0  0  0  0  0  0
    5.2714   -3.0634   -0.4032 H   0  0  0  0  0  0  0  0  0  0  0  0
  1 16  1  0  0  0  0
  2 17  1  0  0  0  0
  3 21  1  0  0  0  0
  4 15  1  0  0  0  0
  4 18  1  0  0  0  0
  5 14  2  0  0  0  0
  6 14  1  0  0  0  0
  7 23  1  0  0  0  0
  7 35  1  0  0  0  0
  8 10  1  0  0  0  0
  8 27  1  0  0  0  0
  8 28  1  0  0  0  0
  8 29  1  0  0  0  0
  9 10  1  0  0  0  0
  9 11  1  0  0  0  0
  9 24  1  0  0  0  0
  9 25  1  0  0  0  0
 10 14  1  0  0  0  0
 10 26  1  6  0  0  0
 11 12  2  0  0  0  0
 11 13  1  0  0  0  0
 12 17  1  0  0  0  0
 12 30  1  0  0  0  0
 13 16  2  0  0  0  0
 13 31  1  0  0  0  0
 15 16  1  0  0  0  0
 15 17  2  0  0  0  0
 18 19  2  0  0  0  0
 18 20  1  0  0  0  0
 19 21  1  0  0  0  0
 19 32  1  0  0  0  0
 20 22  2  0  0  0  0
 20 33  1  0  0  0  0
 21 23  2  0  0  0  0
 22 23  1  0  0  0  0
 22 34  1  0  0  0  0
M  CHG  1   8   1
M  END
