DB00773
 OpenBabel07062211533D

 74 80  0  0  1  0  0  0  0  0999 V2000
   -1.2713   -0.8926    1.1056 O   0  0  0  0  0  0  0  0  0  0  0  0
    0.7721    2.5615    1.8234 O   0  0  0  0  0  0  0  0  0  0  0  0
   -2.7850    0.4904   -0.0169 O   0  0  0  0  0  0  0  0  0  0  0  0
   -6.4373    0.6226   -0.1177 O   0  0  0  0  0  0  0  0  0  0  0  0
    2.7152    2.0174    2.9315 O   0  0  0  0  0  0  0  0  0  0  0  0
   -3.4686   -2.5058    1.9984 O   0  0  0  0  0  0  0  0  0  0  0  0
   -5.5621    2.0951   -1.7828 O   0  0  0  0  0  0  0  0  0  0  0  0
   -5.9113   -0.9398    2.2695 O   0  0  0  0  0  0  0  0  0  0  0  0
    0.6659   -5.2067   -1.4380 O   0  0  0  0  0  0  0  0  0  0  0  0
    2.8495   -5.2870   -0.4243 O   0  0  0  0  0  0  0  0  0  0  0  0
    6.7197    1.8349    1.0760 O   0  0  0  0  0  0  0  0  0  0  0  0
    4.4244    0.6088   -2.9448 O   0  0  0  0  0  0  0  0  0  0  0  0
    6.5655    1.8392   -1.6888 O   0  0  0  0  0  0  0  0  0  0  0  0
    0.5266    0.6269    0.5728 C   0  0  1  0  0  0  0  0  0  0  0  0
    1.4219    0.3118    1.7586 C   0  0  1  0  0  0  0  0  0  0  0  0
   -0.2544   -0.6095    0.1451 C   0  0  1  0  0  0  0  0  0  0  0  0
    2.5405   -0.6677    1.3730 C   0  0  1  0  0  0  0  0  0  0  0  0
    0.6582   -1.8169    0.0097 C   0  0  0  0  0  0  0  0  0  0  0  0
    1.9542   -1.8633    0.6101 C   0  0  0  0  0  0  0  0  0  0  0  0
   -0.2275    1.8289    1.0901 C   0  0  0  0  0  0  0  0  0  0  0  0
    1.7584    1.6994    2.2442 C   0  0  0  0  0  0  0  0  0  0  0  0
   -2.5715   -0.8159    0.5223 C   0  0  2  0  0  0  0  0  0  0  0  0
    3.6098   -0.0012    0.5589 C   0  0  0  0  0  0  0  0  0  0  0  0
   -3.5955   -1.1362    1.6173 C   0  0  1  0  0  0  0  0  0  0  0  0
   -5.1515    0.4695    0.4854 C   0  0  1  0  0  0  0  0  0  0  0  0
   -5.0325   -0.9001    1.1450 C   0  0  2  0  0  0  0  0  0  0  0  0
   -4.0791    0.6161   -0.5922 C   0  0  1  0  0  0  0  0  0  0  0  0
    0.1761   -2.9339   -0.6981 C   0  0  0  0  0  0  0  0  0  0  0  0
    2.7374   -3.0284    0.4909 C   0  0  0  0  0  0  0  0  0  0  0  0
   -4.2373    1.9732   -1.2653 C   0  0  0  0  0  0  0  0  0  0  0  0
    0.9806   -4.0500   -0.7935 C   0  0  0  0  0  0  0  0  0  0  0  0
    2.2245   -4.0963   -0.2147 C   0  0  0  0  0  0  0  0  0  0  0  0
    3.5221   -0.0049   -0.8288 C   0  0  0  0  0  0  0  0  0  0  0  0
    4.6792    0.6143    1.1996 C   0  0  0  0  0  0  0  0  0  0  0  0
   -6.5403    1.9029   -0.7543 C   0  0  1  0  0  0  0  0  0  0  0  0
    5.6737    1.2343    0.4430 C   0  0  0  0  0  0  0  0  0  0  0  0
    4.5165    0.6150   -1.5855 C   0  0  0  0  0  0  0  0  0  0  0  0
    1.8565   -5.9854   -1.2026 C   0  0  0  0  0  0  0  0  0  0  0  0
    5.5923    1.2345   -0.9496 C   0  0  0  0  0  0  0  0  0  0  0  0
   -7.9137    1.9907   -1.3978 C   0  0  0  0  0  0  0  0  0  0  0  0
    6.5678    3.2118    1.4153 C   0  0  0  0  0  0  0  0  0  0  0  0
    3.7298    1.6962   -3.5523 C   0  0  0  0  0  0  0  0  0  0  0  0
    1.1313    0.9756   -0.2736 H   0  0  0  0  0  0  0  0  0  0  0  0
    0.8260   -0.1463    2.5630 H   0  0  0  0  0  0  0  0  0  0  0  0
   -0.6762   -0.4041   -0.8492 H   0  0  0  0  0  0  0  0  0  0  0  0
    2.9849   -1.0552    2.3009 H   0  0  0  0  0  0  0  0  0  0  0  0
   -1.0426    1.5895    1.7800 H   0  0  0  0  0  0  0  0  0  0  0  0
   -0.6113    2.4546    0.2792 H   0  0  0  0  0  0  0  0  0  0  0  0
   -2.6362   -1.5645   -0.2786 H   0  0  0  0  0  0  0  0  0  0  0  0
   -3.3964   -0.5368    2.5146 H   0  0  0  0  0  0  0  0  0  0  0  0
   -5.0371    1.2402    1.2612 H   0  0  0  0  0  0  0  0  0  0  0  0
   -5.3566   -1.6981    0.4659 H   0  0  0  0  0  0  0  0  0  0  0  0
   -4.2204   -0.1545   -1.3636 H   0  0  0  0  0  0  0  0  0  0  0  0
   -0.8060   -2.9248   -1.1596 H   0  0  0  0  0  0  0  0  0  0  0  0
    3.7243   -3.0875    0.9391 H   0  0  0  0  0  0  0  0  0  0  0  0
   -3.5288    2.0736   -2.0944 H   0  0  0  0  0  0  0  0  0  0  0  0
   -4.0292    2.7976   -0.5721 H   0  0  0  0  0  0  0  0  0  0  0  0
    2.6984   -0.4615   -1.3677 H   0  0  0  0  0  0  0  0  0  0  0  0
    4.7642    0.5981    2.2828 H   0  0  0  0  0  0  0  0  0  0  0  0
   -6.4457    2.6982   -0.0035 H   0  0  0  0  0  0  0  0  0  0  0  0
   -2.5452   -2.6472    2.2692 H   0  0  0  0  0  0  0  0  0  0  0  0
   -6.8090   -0.7561    1.9434 H   0  0  0  0  0  0  0  0  0  0  0  0
    1.5766   -6.9030   -0.6724 H   0  0  0  0  0  0  0  0  0  0  0  0
    2.2953   -6.2573   -2.1695 H   0  0  0  0  0  0  0  0  0  0  0  0
   -8.7048    1.8535   -0.6540 H   0  0  0  0  0  0  0  0  0  0  0  0
   -8.0351    1.2065   -2.1539 H   0  0  0  0  0  0  0  0  0  0  0  0
   -8.0510    2.9535   -1.8997 H   0  0  0  0  0  0  0  0  0  0  0  0
    7.2499    2.1759   -1.0854 H   0  0  0  0  0  0  0  0  0  0  0  0
    7.4969    3.5551    1.8784 H   0  0  0  0  0  0  0  0  0  0  0  0
    5.7510    3.3396    2.1327 H   0  0  0  0  0  0  0  0  0  0  0  0
    6.3787    3.8144    0.5212 H   0  0  0  0  0  0  0  0  0  0  0  0
    2.6875    1.7193   -3.2184 H   0  0  0  0  0  0  0  0  0  0  0  0
    3.7469    1.5514   -4.6358 H   0  0  0  0  0  0  0  0  0  0  0  0
    4.2203    2.6463   -3.3181 H   0  0  0  0  0  0  0  0  0  0  0  0
  1 16  1  0  0  0  0
  1 22  1  0  0  0  0
  2 20  1  0  0  0  0
  2 21  1  0  0  0  0
  3 22  1  0  0  0  0
  3 27  1  0  0  0  0
  4 25  1  0  0  0  0
  4 35  1  0  0  0  0
  5 21  2  0  0  0  0
  6 24  1  0  0  0  0
  6 61  1  0  0  0  0
  7 30  1  0  0  0  0
  7 35  1  0  0  0  0
  8 26  1  0  0  0  0
  8 62  1  0  0  0  0
  9 31  1  0  0  0  0
  9 38  1  0  0  0  0
 10 32  1  0  0  0  0
 10 38  1  0  0  0  0
 11 36  1  0  0  0  0
 11 41  1  0  0  0  0
 12 37  1  0  0  0  0
 12 42  1  0  0  0  0
 13 39  1  0  0  0  0
 13 68  1  0  0  0  0
 14 15  1  1  0  0  0
 14 20  1  0  0  0  0
 14 43  1  0  0  0  0
 15 17  1  6  0  0  0
 15 21  1  0  0  0  0
 15 44  1  0  0  0  0
 16 14  1  1  0  0  0
 16 18  1  0  0  0  0
 16 45  1  0  0  0  0
 17 19  1  0  0  0  0
 17 23  1  0  0  0  0
 17 46  1  1  0  0  0
 18 19  2  0  0  0  0
 18 28  1  0  0  0  0
 19 29  1  0  0  0  0
 20 47  1  0  0  0  0
 20 48  1  0  0  0  0
 22 24  1  1  0  0  0
 22 49  1  0  0  0  0
 23 33  2  0  0  0  0
 23 34  1  0  0  0  0
 24 26  1  6  0  0  0
 24 50  1  0  0  0  0
 25 26  1  1  0  0  0
 25 51  1  0  0  0  0
 26 52  1  6  0  0  0
 27 25  1  1  0  0  0
 27 30  1  0  0  0  0
 27 53  1  0  0  0  0
 28 31  2  0  0  0  0
 28 54  1  0  0  0  0
 29 32  2  0  0  0  0
 29 55  1  0  0  0  0
 30 56  1  0  0  0  0
 30 57  1  0  0  0  0
 31 32  1  0  0  0  0
 33 37  1  0  0  0  0
 33 58  1  0  0  0  0
 34 36  2  0  0  0  0
 34 59  1  0  0  0  0
 35 40  1  0  0  0  0
 35 60  1  1  0  0  0
 36 39  1  0  0  0  0
 37 39  2  0  0  0  0
 38 63  1  0  0  0  0
 38 64  1  0  0  0  0
 40 65  1  0  0  0  0
 40 66  1  0  0  0  0
 40 67  1  0  0  0  0
 41 69  1  0  0  0  0
 41 70  1  0  0  0  0
 41 71  1  0  0  0  0
 42 72  1  0  0  0  0
 42 73  1  0  0  0  0
 42 74  1  0  0  0  0
M  END
