DB00377
 OpenBabel07062211533D

 46 50  0  0  1  0  0  0  0  0999 V2000
   -0.1319    2.9099    0.8432 O   0  0  0  0  0  0  0  0  0  0  0  0
   -3.6159   -1.1339    0.5985 N   0  0  2  0  0  0  0  0  0  0  0  0
   -0.4536    0.6363    0.4615 N   0  0  0  0  0  0  0  0  0  0  0  0
   -2.6648    0.9570   -0.6238 C   0  0  1  0  0  0  0  0  0  0  0  0
   -1.8912    0.6740    0.6794 C   0  0  1  0  0  0  0  0  0  0  0  0
   -2.4122   -0.6360    1.3044 C   0  0  0  0  0  0  0  0  0  0  0  0
   -2.6087   -0.2892   -1.5252 C   0  0  0  0  0  0  0  0  0  0  0  0
   -4.1379    1.1660   -0.2342 C   0  0  0  0  0  0  0  0  0  0  0  0
   -3.2329   -1.4841   -0.7867 C   0  0  0  0  0  0  0  0  0  0  0  0
   -4.6317   -0.0589    0.5545 C   0  0  0  0  0  0  0  0  0  0  0  0
    1.5246   -0.8244    0.4997 C   0  0  2  0  0  0  0  0  0  0  0  0
    0.1139   -0.6123   -0.0400 C   0  0  0  0  0  0  0  0  0  0  0  0
    2.3607    0.3946    0.1906 C   0  0  0  0  0  0  0  0  0  0  0  0
    2.1391   -2.1151   -0.0513 C   0  0  0  0  0  0  0  0  0  0  0  0
    0.3111    1.8034    0.5435 C   0  0  0  0  0  0  0  0  0  0  0  0
    1.7627    1.6656    0.2428 C   0  0  0  0  0  0  0  0  0  0  0  0
    3.5999   -2.2137    0.3735 C   0  0  0  0  0  0  0  0  0  0  0  0
    3.7358    0.2825   -0.0888 C   0  0  0  0  0  0  0  0  0  0  0  0
    4.4111   -1.0608   -0.2150 C   0  0  0  0  0  0  0  0  0  0  0  0
    2.5276    2.8152    0.0189 C   0  0  0  0  0  0  0  0  0  0  0  0
    4.4859    1.4434   -0.3255 C   0  0  0  0  0  0  0  0  0  0  0  0
    3.8865    2.7005   -0.2658 C   0  0  0  0  0  0  0  0  0  0  0  0
   -2.2738    1.8341   -1.1505 H   0  0  0  0  0  0  0  0  0  0  0  0
   -2.0923    1.4989    1.3765 H   0  0  0  0  0  0  0  0  0  0  0  0
   -1.7048   -1.4468    1.4820 H   0  0  0  0  0  0  0  0  0  0  0  0
   -2.7245   -0.3940    2.3317 H   0  0  0  0  0  0  0  0  0  0  0  0
   -1.6151   -0.5184   -1.9022 H   0  0  0  0  0  0  0  0  0  0  0  0
   -3.2072   -0.0910   -2.4250 H   0  0  0  0  0  0  0  0  0  0  0  0
   -4.7498    1.3067   -1.1333 H   0  0  0  0  0  0  0  0  0  0  0  0
   -4.2454    2.0708    0.3758 H   0  0  0  0  0  0  0  0  0  0  0  0
   -4.1120   -1.8484   -1.3335 H   0  0  0  0  0  0  0  0  0  0  0  0
   -2.5300   -2.3258   -0.7739 H   0  0  0  0  0  0  0  0  0  0  0  0
   -4.9051    0.2362    1.5753 H   0  0  0  0  0  0  0  0  0  0  0  0
   -5.5556   -0.4422    0.1036 H   0  0  0  0  0  0  0  0  0  0  0  0
    1.4750   -0.9069    1.5952 H   0  0  0  0  0  0  0  0  0  0  0  0
    0.2095   -0.4840   -1.1254 H   0  0  0  0  0  0  0  0  0  0  0  0
   -0.4768   -1.5094    0.1154 H   0  0  0  0  0  0  0  0  0  0  0  0
    2.0731   -2.1421   -1.1467 H   0  0  0  0  0  0  0  0  0  0  0  0
    1.5844   -2.9823    0.3261 H   0  0  0  0  0  0  0  0  0  0  0  0
    4.0265   -3.1685    0.0462 H   0  0  0  0  0  0  0  0  0  0  0  0
    3.6651   -2.1928    1.4688 H   0  0  0  0  0  0  0  0  0  0  0  0
    4.5818   -1.2522   -1.2821 H   0  0  0  0  0  0  0  0  0  0  0  0
    5.3911   -1.0330    0.2762 H   0  0  0  0  0  0  0  0  0  0  0  0
    2.0832    3.8062    0.0540 H   0  0  0  0  0  0  0  0  0  0  0  0
    5.5451    1.3724   -0.5608 H   0  0  0  0  0  0  0  0  0  0  0  0
    4.4796    3.5923   -0.4474 H   0  0  0  0  0  0  0  0  0  0  0  0
  1 15  2  0  0  0  0
  2  6  1  1  0  0  0
  2  9  1  0  0  0  0
  2 10  1  0  0  0  0
  3  5  1  0  0  0  0
  3 12  1  0  0  0  0
  3 15  1  0  0  0  0
  4  7  1  0  0  0  0
  4  8  1  0  0  0  0
  4 23  1  6  0  0  0
  5  4  1  6  0  0  0
  5  6  1  0  0  0  0
  5 24  1  0  0  0  0
  6 25  1  0  0  0  0
  6 26  1  0  0  0  0
  7  9  1  0  0  0  0
  7 27  1  0  0  0  0
  7 28  1  0  0  0  0
  8 10  1  0  0  0  0
  8 29  1  0  0  0  0
  8 30  1  0  0  0  0
  9 31  1  0  0  0  0
  9 32  1  0  0  0  0
 10 33  1  0  0  0  0
 10 34  1  0  0  0  0
 11 12  1  0  0  0  0
 11 13  1  0  0  0  0
 11 14  1  0  0  0  0
 11 35  1  1  0  0  0
 12 36  1  0  0  0  0
 12 37  1  0  0  0  0
 13 16  2  0  0  0  0
 13 18  1  0  0  0  0
 14 17  1  0  0  0  0
 14 38  1  0  0  0  0
 14 39  1  0  0  0  0
 15 16  1  0  0  0  0
 16 20  1  0  0  0  0
 17 19  1  0  0  0  0
 17 40  1  0  0  0  0
 17 41  1  0  0  0  0
 18 19  1  0  0  0  0
 18 21  2  0  0  0  0
 19 42  1  0  0  0  0
 19 43  1  0  0  0  0
 20 22  2  0  0  0  0
 20 44  1  0  0  0  0
 21 22  1  0  0  0  0
 21 45  1  0  0  0  0
 22 46  1  0  0  0  0
M  END
