DB00336
 OpenBabel07062211533D

 20 20  0  0  0  0  0  0  0  0999 V2000
    2.0483   -0.8625    0.0001 O   0  0  0  0  0  0  0  0  0  0  0  0
    5.5093   -0.3619   -0.0009 O   0  0  0  0  0  0  0  0  0  0  0  0
    4.3004   -2.1943    0.0005 O   0  0  0  0  0  0  0  0  0  0  0  0
   -3.7042    1.7352   -0.0001 O   0  0  0  0  0  0  0  0  0  0  0  0
    4.3774   -0.9301   -0.0001 N   0  0  0  0  0  0  0  0  0  0  0  0
   -1.3113    0.3744   -0.0000 N   0  0  0  0  0  0  0  0  0  0  0  0
   -2.5083   -0.2540   -0.0003 N   0  0  0  0  0  0  0  0  0  0  0  0
   -4.8033   -0.2813    0.0002 N   0  0  0  0  0  0  0  0  0  0  0  0
    1.0717    0.0624    0.0001 C   0  0  0  0  0  0  0  0  0  0  0  0
    1.5527    1.3298   -0.0000 C   0  0  0  0  0  0  0  0  0  0  0  0
    3.2121   -0.1613    0.0004 C   0  0  0  0  0  0  0  0  0  0  0  0
    2.9612    1.1912    0.0003 C   0  0  0  0  0  0  0  0  0  0  0  0
   -0.2961   -0.4285   -0.0001 C   0  0  0  0  0  0  0  0  0  0  0  0
   -3.6663    0.5056   -0.0003 C   0  0  0  0  0  0  0  0  0  0  0  0
    0.9857    2.2498   -0.0002 H   0  0  0  0  0  0  0  0  0  0  0  0
    3.6965    1.9835    0.0003 H   0  0  0  0  0  0  0  0  0  0  0  0
   -0.4199   -1.5276   -0.0002 H   0  0  0  0  0  0  0  0  0  0  0  0
   -2.5279   -1.2687   -0.0004 H   0  0  0  0  0  0  0  0  0  0  0  0
   -5.7295    0.1327    0.0005 H   0  0  0  0  0  0  0  0  0  0  0  0
   -4.7484   -1.2943    0.0001 H   0  0  0  0  0  0  0  0  0  0  0  0
  1  9  1  0  0  0  0
  1 11  1  0  0  0  0
  2  5  1  0  0  0  0
  3  5  2  0  0  0  0
  4 14  2  0  0  0  0
  5 11  1  0  0  0  0
  6  7  1  0  0  0  0
  6 13  2  0  0  0  0
  7 14  1  0  0  0  0
  7 18  1  0  0  0  0
  8 14  1  0  0  0  0
  8 19  1  0  0  0  0
  8 20  1  0  0  0  0
  9 10  2  0  0  0  0
  9 13  1  0  0  0  0
 10 12  1  0  0  0  0
 10 15  1  0  0  0  0
 11 12  2  0  0  0  0
 12 16  1  0  0  0  0
 13 17  1  0  0  0  0
M  END
