DB00470
 OpenBabel07062211533D

 53 55  0  0  1  0  0  0  0  0999 V2000
    0.8917    1.8483    0.6623 O   0  0  0  0  0  0  0  0  0  0  0  0
    0.6739   -2.7551   -0.9294 O   0  0  0  0  0  0  0  0  0  0  0  0
    3.0676    0.7932    0.2584 C   0  0  2  0  0  0  0  0  0  0  0  0
    2.4150   -0.4071   -0.4700 C   0  0  2  0  0  0  0  0  0  0  0  0
    2.2008    2.0644    0.0934 C   0  0  0  0  0  0  0  0  0  0  0  0
    4.5285    0.9185   -0.1952 C   0  0  0  0  0  0  0  0  0  0  0  0
    0.9590   -0.4994   -0.0529 C   0  0  0  0  0  0  0  0  0  0  0  0
    5.3226   -0.3305    0.2056 C   0  0  0  0  0  0  0  0  0  0  0  0
    3.2541   -1.6525   -0.2711 C   0  0  0  0  0  0  0  0  0  0  0  0
    4.5640   -1.6226    0.0365 C   0  0  0  0  0  0  0  0  0  0  0  0
    0.3041    0.6256    0.4731 C   0  0  0  0  0  0  0  0  0  0  0  0
    2.7997    3.3373    0.7118 C   0  0  0  0  0  0  0  0  0  0  0  0
    1.9339    2.3569   -1.3940 C   0  0  0  0  0  0  0  0  0  0  0  0
    0.1997   -1.6635   -0.2623 C   0  0  0  0  0  0  0  0  0  0  0  0
   -1.0425    0.5579    0.8514 C   0  0  0  0  0  0  0  0  0  0  0  0
    5.3643   -2.8780    0.2312 C   0  0  0  0  0  0  0  0  0  0  0  0
   -1.7652   -0.6176    0.6729 C   0  0  0  0  0  0  0  0  0  0  0  0
   -1.1464   -1.7256    0.1065 C   0  0  0  0  0  0  0  0  0  0  0  0
   -3.2016   -0.6806    1.0669 C   0  0  0  0  0  0  0  0  0  0  0  0
   -4.1849   -0.2615   -0.0417 C   0  0  0  0  0  0  0  0  0  0  0  0
   -5.6446   -0.2765    0.4225 C   0  0  0  0  0  0  0  0  0  0  0  0
   -6.5860    0.1698   -0.6967 C   0  0  0  0  0  0  0  0  0  0  0  0
   -8.0331    0.1941   -0.2307 C   0  0  0  0  0  0  0  0  0  0  0  0
    3.0782    0.5721    1.3390 H   0  0  0  0  0  0  0  0  0  0  0  0
    2.4124   -0.2372   -1.5553 H   0  0  0  0  0  0  0  0  0  0  0  0
    5.0131    1.7923    0.2526 H   0  0  0  0  0  0  0  0  0  0  0  0
    4.5801    1.0472   -1.2833 H   0  0  0  0  0  0  0  0  0  0  0  0
    5.6159   -0.2417    1.2594 H   0  0  0  0  0  0  0  0  0  0  0  0
    6.2474   -0.3597   -0.3828 H   0  0  0  0  0  0  0  0  0  0  0  0
    2.8211   -2.6349   -0.4041 H   0  0  0  0  0  0  0  0  0  0  0  0
    3.0340    3.1689    1.7688 H   0  0  0  0  0  0  0  0  0  0  0  0
    3.7110    3.6601    0.1998 H   0  0  0  0  0  0  0  0  0  0  0  0
    2.0784    4.1622    0.6842 H   0  0  0  0  0  0  0  0  0  0  0  0
    1.3522    3.2827   -1.4951 H   0  0  0  0  0  0  0  0  0  0  0  0
    2.8637    2.4961   -1.9546 H   0  0  0  0  0  0  0  0  0  0  0  0
    1.3323    1.5989   -1.9036 H   0  0  0  0  0  0  0  0  0  0  0  0
   -1.5273    1.4365    1.2723 H   0  0  0  0  0  0  0  0  0  0  0  0
    5.7931   -2.9010    1.2383 H   0  0  0  0  0  0  0  0  0  0  0  0
    6.1813   -2.9238   -0.4960 H   0  0  0  0  0  0  0  0  0  0  0  0
    4.7573   -3.7811    0.1077 H   0  0  0  0  0  0  0  0  0  0  0  0
   -1.7237   -2.6311   -0.0673 H   0  0  0  0  0  0  0  0  0  0  0  0
   -3.4454   -1.6985    1.3992 H   0  0  0  0  0  0  0  0  0  0  0  0
   -3.3607   -0.0467    1.9494 H   0  0  0  0  0  0  0  0  0  0  0  0
   -4.0674   -0.9305   -0.9036 H   0  0  0  0  0  0  0  0  0  0  0  0
   -3.9269    0.7464   -0.3915 H   0  0  0  0  0  0  0  0  0  0  0  0
   -0.0123   -3.4420   -0.9781 H   0  0  0  0  0  0  0  0  0  0  0  0
   -5.9144   -1.2867    0.7529 H   0  0  0  0  0  0  0  0  0  0  0  0
   -5.7590    0.3887    1.2870 H   0  0  0  0  0  0  0  0  0  0  0  0
   -6.4937   -0.5083   -1.5531 H   0  0  0  0  0  0  0  0  0  0  0  0
   -6.3049    1.1710   -1.0435 H   0  0  0  0  0  0  0  0  0  0  0  0
   -8.1649    0.8900    0.6039 H   0  0  0  0  0  0  0  0  0  0  0  0
   -8.6887    0.5143   -1.0465 H   0  0  0  0  0  0  0  0  0  0  0  0
   -8.3567   -0.7995    0.0955 H   0  0  0  0  0  0  0  0  0  0  0  0
  1  5  1  0  0  0  0
  1 11  1  0  0  0  0
  2 14  1  0  0  0  0
  2 46  1  0  0  0  0
  3  4  1  6  0  0  0
  3  5  1  0  0  0  0
  3  6  1  0  0  0  0
  3 24  1  0  0  0  0
  4  7  1  0  0  0  0
  4  9  1  0  0  0  0
  4 25  1  6  0  0  0
  5 12  1  0  0  0  0
  5 13  1  0  0  0  0
  6  8  1  0  0  0  0
  6 26  1  0  0  0  0
  6 27  1  0  0  0  0
  7 11  2  0  0  0  0
  7 14  1  0  0  0  0
  8 10  1  0  0  0  0
  8 28  1  0  0  0  0
  8 29  1  0  0  0  0
  9 10  2  0  0  0  0
  9 30  1  0  0  0  0
 10 16  1  0  0  0  0
 11 15  1  0  0  0  0
 12 31  1  0  0  0  0
 12 32  1  0  0  0  0
 12 33  1  0  0  0  0
 13 34  1  0  0  0  0
 13 35  1  0  0  0  0
 13 36  1  0  0  0  0
 14 18  2  0  0  0  0
 15 17  2  0  0  0  0
 15 37  1  0  0  0  0
 16 38  1  0  0  0  0
 16 39  1  0  0  0  0
 16 40  1  0  0  0  0
 17 18  1  0  0  0  0
 17 19  1  0  0  0  0
 18 41  1  0  0  0  0
 19 20  1  0  0  0  0
 19 42  1  0  0  0  0
 19 43  1  0  0  0  0
 20 21  1  0  0  0  0
 20 44  1  0  0  0  0
 20 45  1  0  0  0  0
 21 22  1  0  0  0  0
 21 47  1  0  0  0  0
 21 48  1  0  0  0  0
 22 23  1  0  0  0  0
 22 49  1  0  0  0  0
 22 50  1  0  0  0  0
 23 51  1  0  0  0  0
 23 52  1  0  0  0  0
 23 53  1  0  0  0  0
M  END
