DB00822
 OpenBabel07062211533D

 36 35  0  0  0  0  0  0  0  0999 V2000
    0.3649   -1.5130   -1.4891 S   0  0  0  0  0  0  0  0  0  0  0  0
   -0.9465   -2.3427   -0.1304 S   0  0  0  0  0  0  0  0  0  0  0  0
    2.4335   -3.2831   -0.2856 S   0  0  0  0  0  0  0  0  0  0  0  0
   -0.4151   -0.5688    2.1998 S   0  0  0  0  0  0  0  0  0  0  0  0
    2.6349   -0.5326   -0.3670 N   0  0  0  0  0  0  0  0  0  0  0  0
   -2.4930   -0.1810    0.4260 N   0  0  0  0  0  0  0  0  0  0  0  0
    3.9441   -0.5004    0.2924 C   0  0  0  0  0  0  0  0  0  0  0  0
    2.1137    0.7968   -0.6951 C   0  0  0  0  0  0  0  0  0  0  0  0
   -2.9441    1.0243    1.1262 C   0  0  0  0  0  0  0  0  0  0  0  0
   -3.2971   -0.5053   -0.7562 C   0  0  0  0  0  0  0  0  0  0  0  0
    3.8056   -0.3652    1.7947 C   0  0  0  0  0  0  0  0  0  0  0  0
    2.5653    1.2461   -2.0694 C   0  0  0  0  0  0  0  0  0  0  0  0
   -2.2453    2.2630    0.6051 C   0  0  0  0  0  0  0  0  0  0  0  0
   -4.4221   -1.4613   -0.4168 C   0  0  0  0  0  0  0  0  0  0  0  0
    1.9188   -1.7133   -0.6503 C   0  0  0  0  0  0  0  0  0  0  0  0
   -1.3776   -0.9286    0.8558 C   0  0  0  0  0  0  0  0  0  0  0  0
    4.5033   -1.4113    0.0601 H   0  0  0  0  0  0  0  0  0  0  0  0
    4.5321    0.3320   -0.1106 H   0  0  0  0  0  0  0  0  0  0  0  0
    1.0240    0.8341   -0.6283 H   0  0  0  0  0  0  0  0  0  0  0  0
    2.4702    1.5121    0.0556 H   0  0  0  0  0  0  0  0  0  0  0  0
   -4.0294    1.1252    1.0095 H   0  0  0  0  0  0  0  0  0  0  0  0
   -2.7655    0.9273    2.2011 H   0  0  0  0  0  0  0  0  0  0  0  0
   -3.7117    0.4207   -1.1724 H   0  0  0  0  0  0  0  0  0  0  0  0
   -2.6789   -0.9293   -1.5501 H   0  0  0  0  0  0  0  0  0  0  0  0
    3.2869    0.5589    2.0686 H   0  0  0  0  0  0  0  0  0  0  0  0
    3.2413   -1.2001    2.2216 H   0  0  0  0  0  0  0  0  0  0  0  0
    4.7932   -0.3490    2.2660 H   0  0  0  0  0  0  0  0  0  0  0  0
    3.6570    1.3009   -2.1319 H   0  0  0  0  0  0  0  0  0  0  0  0
    2.2259    0.5616   -2.8526 H   0  0  0  0  0  0  0  0  0  0  0  0
    2.1660    2.2405   -2.2926 H   0  0  0  0  0  0  0  0  0  0  0  0
   -1.1596    2.1998    0.7260 H   0  0  0  0  0  0  0  0  0  0  0  0
   -2.4482    2.4134   -0.4603 H   0  0  0  0  0  0  0  0  0  0  0  0
   -2.5946    3.1499    1.1431 H   0  0  0  0  0  0  0  0  0  0  0  0
   -4.0454   -2.4057   -0.0126 H   0  0  0  0  0  0  0  0  0  0  0  0
   -5.0954   -1.0293    0.3309 H   0  0  0  0  0  0  0  0  0  0  0  0
   -5.0113   -1.6866   -1.3112 H   0  0  0  0  0  0  0  0  0  0  0  0
  1  2  1  0  0  0  0
  1 15  1  0  0  0  0
  2 16  1  0  0  0  0
  3 15  2  0  0  0  0
  4 16  2  0  0  0  0
  5  7  1  0  0  0  0
  5  8  1  0  0  0  0
  5 15  1  0  0  0  0
  6  9  1  0  0  0  0
  6 10  1  0  0  0  0
  6 16  1  0  0  0  0
  7 11  1  0  0  0  0
  7 17  1  0  0  0  0
  7 18  1  0  0  0  0
  8 12  1  0  0  0  0
  8 19  1  0  0  0  0
  8 20  1  0  0  0  0
  9 13  1  0  0  0  0
  9 21  1  0  0  0  0
  9 22  1  0  0  0  0
 10 14  1  0  0  0  0
 10 23  1  0  0  0  0
 10 24  1  0  0  0  0
 11 25  1  0  0  0  0
 11 26  1  0  0  0  0
 11 27  1  0  0  0  0
 12 28  1  0  0  0  0
 12 29  1  0  0  0  0
 12 30  1  0  0  0  0
 13 31  1  0  0  0  0
 13 32  1  0  0  0  0
 13 33  1  0  0  0  0
 14 34  1  0  0  0  0
 14 35  1  0  0  0  0
 14 36  1  0  0  0  0
M  END
