DB00902
 OpenBabel07062211533D

 41 44  0  0  1  0  0  0  0  0999 V2000
   -3.0726    0.0125    1.6693 S   0  0  0  0  0  0  0  0  0  0  0  0
    3.0878   -0.1418    1.0478 N   0  0  0  0  0  0  0  0  0  0  0  0
   -0.9655   -0.0343   -0.6160 N   0  0  0  0  0  0  0  0  0  0  0  0
    1.4442   -0.5680   -0.5212 C   0  0  1  0  0  0  0  0  0  0  0  0
    2.7872   -0.5830   -1.2553 C   0  0  0  0  0  0  0  0  0  0  0  0
    1.7185    0.2627    0.7272 C   0  0  0  0  0  0  0  0  0  0  0  0
    3.8097   -0.1062   -0.2259 C   0  0  0  0  0  0  0  0  0  0  0  0
    0.3001   -0.0251   -1.3610 C   0  0  0  0  0  0  0  0  0  0  0  0
    3.6985    0.7090    2.0581 C   0  0  0  0  0  0  0  0  0  0  0  0
   -1.5979    1.2143   -0.3880 C   0  0  0  0  0  0  0  0  0  0  0  0
   -1.4923   -1.2957   -0.2394 C   0  0  0  0  0  0  0  0  0  0  0  0
   -2.5876    1.3563    0.6047 C   0  0  0  0  0  0  0  0  0  0  0  0
   -2.4713   -1.4021    0.7683 C   0  0  0  0  0  0  0  0  0  0  0  0
   -1.2966    2.3573   -1.1605 C   0  0  0  0  0  0  0  0  0  0  0  0
   -1.0929   -2.4923   -0.8737 C   0  0  0  0  0  0  0  0  0  0  0  0
   -3.2172    2.5948    0.8215 C   0  0  0  0  0  0  0  0  0  0  0  0
   -2.9957   -2.6550    1.1330 C   0  0  0  0  0  0  0  0  0  0  0  0
   -1.9288    3.5848   -0.9441 C   0  0  0  0  0  0  0  0  0  0  0  0
   -1.6209   -3.7344   -0.5108 C   0  0  0  0  0  0  0  0  0  0  0  0
   -2.8879    3.7046    0.0501 C   0  0  0  0  0  0  0  0  0  0  0  0
   -2.5709   -3.8160    0.4958 C   0  0  0  0  0  0  0  0  0  0  0  0
    1.2499   -1.5981   -0.1994 H   0  0  0  0  0  0  0  0  0  0  0  0
    2.7944    0.0761   -2.1307 H   0  0  0  0  0  0  0  0  0  0  0  0
    3.0161   -1.5976   -1.6009 H   0  0  0  0  0  0  0  0  0  0  0  0
    1.6526    1.3380    0.5158 H   0  0  0  0  0  0  0  0  0  0  0  0
    1.0258    0.0181    1.5392 H   0  0  0  0  0  0  0  0  0  0  0  0
    4.6927   -0.7527   -0.2069 H   0  0  0  0  0  0  0  0  0  0  0  0
    4.1326    0.9109   -0.4826 H   0  0  0  0  0  0  0  0  0  0  0  0
    0.1972   -0.5765   -2.3039 H   0  0  0  0  0  0  0  0  0  0  0  0
    0.6304    0.9655   -1.6769 H   0  0  0  0  0  0  0  0  0  0  0  0
    3.7371    1.7609    1.7526 H   0  0  0  0  0  0  0  0  0  0  0  0
    4.7199    0.3755    2.2711 H   0  0  0  0  0  0  0  0  0  0  0  0
    3.1393    0.6458    2.9980 H   0  0  0  0  0  0  0  0  0  0  0  0
   -0.6118    2.3388   -2.0016 H   0  0  0  0  0  0  0  0  0  0  0  0
   -0.3715   -2.4995   -1.6859 H   0  0  0  0  0  0  0  0  0  0  0  0
   -3.9739    2.7080    1.5954 H   0  0  0  0  0  0  0  0  0  0  0  0
   -3.7432   -2.7392    1.9192 H   0  0  0  0  0  0  0  0  0  0  0  0
   -1.6790    4.4405   -1.5648 H   0  0  0  0  0  0  0  0  0  0  0  0
   -1.2898   -4.6340   -1.0213 H   0  0  0  0  0  0  0  0  0  0  0  0
   -3.3832    4.6554    0.2215 H   0  0  0  0  0  0  0  0  0  0  0  0
   -2.9837   -4.7785    0.7821 H   0  0  0  0  0  0  0  0  0  0  0  0
  1 12  1  0  0  0  0
  1 13  1  0  0  0  0
  2  6  1  0  0  0  0
  2  7  1  0  0  0  0
  2  9  1  0  0  0  0
  3  8  1  0  0  0  0
  3 10  1  0  0  0  0
  3 11  1  0  0  0  0
  4  5  1  0  0  0  0
  4  6  1  0  0  0  0
  4  8  1  0  0  0  0
  4 22  1  1  0  0  0
  5  7  1  0  0  0  0
  5 23  1  0  0  0  0
  5 24  1  0  0  0  0
  6 25  1  0  0  0  0
  6 26  1  0  0  0  0
  7 27  1  0  0  0  0
  7 28  1  0  0  0  0
  8 29  1  0  0  0  0
  8 30  1  0  0  0  0
  9 31  1  0  0  0  0
  9 32  1  0  0  0  0
  9 33  1  0  0  0  0
 10 12  2  0  0  0  0
 10 14  1  0  0  0  0
 11 13  2  0  0  0  0
 11 15  1  0  0  0  0
 12 16  1  0  0  0  0
 13 17  1  0  0  0  0
 14 18  2  0  0  0  0
 14 34  1  0  0  0  0
 15 19  2  0  0  0  0
 15 35  1  0  0  0  0
 16 20  2  0  0  0  0
 16 36  1  0  0  0  0
 17 21  2  0  0  0  0
 17 37  1  0  0  0  0
 18 20  1  0  0  0  0
 18 38  1  0  0  0  0
 19 21  1  0  0  0  0
 19 39  1  0  0  0  0
 20 40  1  0  0  0  0
 21 41  1  0  0  0  0
M  END
