DB00920
 OpenBabel07062211533D

 41 44  0  0  0  0  0  0  0  0999 V2000
    2.0619   -4.0815    0.3528 S   0  0  0  0  0  0  0  0  0  0  0  0
    3.6759   -2.1947    2.0383 O   0  0  0  0  0  0  0  0  0  0  0  0
   -3.3734    0.7388    0.0374 N   0  0  0  0  0  0  0  0  0  0  0  0
   -0.7053   -0.0993   -0.6783 C   0  0  0  0  0  0  0  0  0  0  0  0
   -1.8601   -1.0595   -0.7650 C   0  0  0  0  0  0  0  0  0  0  0  0
   -1.1035    1.3488   -0.7645 C   0  0  0  0  0  0  0  0  0  0  0  0
   -2.9618   -0.6629    0.2245 C   0  0  0  0  0  0  0  0  0  0  0  0
   -2.2343    1.6533    0.2246 C   0  0  0  0  0  0  0  0  0  0  0  0
    0.5625   -0.4979   -0.5067 C   0  0  0  0  0  0  0  0  0  0  0  0
    1.5872    0.5806   -0.4417 C   0  0  0  0  0  0  0  0  0  0  0  0
    0.9032   -1.8976   -0.3630 C   0  0  0  0  0  0  0  0  0  0  0  0
    2.4417    0.6868    0.6735 C   0  0  0  0  0  0  0  0  0  0  0  0
   -4.4588    1.0799    0.9567 C   0  0  0  0  0  0  0  0  0  0  0  0
    1.8749   -2.3793    0.5025 C   0  0  0  0  0  0  0  0  0  0  0  0
    2.3166   -0.2600    1.8383 C   0  0  0  0  0  0  0  0  0  0  0  0
    2.7058   -1.6806    1.4779 C   0  0  0  0  0  0  0  0  0  0  0  0
    1.7444    1.4748   -1.5151 C   0  0  0  0  0  0  0  0  0  0  0  0
    0.3034   -2.9547   -1.1240 C   0  0  0  0  0  0  0  0  0  0  0  0
    3.4240    1.6891    0.6964 C   0  0  0  0  0  0  0  0  0  0  0  0
    0.8387   -4.1865   -0.8290 C   0  0  0  0  0  0  0  0  0  0  0  0
    2.7232    2.4677   -1.4763 C   0  0  0  0  0  0  0  0  0  0  0  0
    3.5614    2.5753   -0.3712 C   0  0  0  0  0  0  0  0  0  0  0  0
   -2.2562   -1.0594   -1.7879 H   0  0  0  0  0  0  0  0  0  0  0  0
   -1.6690   -2.0880   -0.4782 H   0  0  0  0  0  0  0  0  0  0  0  0
   -0.3358    2.0834   -0.5232 H   0  0  0  0  0  0  0  0  0  0  0  0
   -1.4431    1.5616   -1.7867 H   0  0  0  0  0  0  0  0  0  0  0  0
   -3.8232   -1.3223    0.0599 H   0  0  0  0  0  0  0  0  0  0  0  0
   -2.6162   -0.8305    1.2542 H   0  0  0  0  0  0  0  0  0  0  0  0
   -1.8538    1.5941    1.2538 H   0  0  0  0  0  0  0  0  0  0  0  0
   -2.5635    2.6867    0.0588 H   0  0  0  0  0  0  0  0  0  0  0  0
   -5.3252    0.4312    0.7863 H   0  0  0  0  0  0  0  0  0  0  0  0
   -4.7986    2.1074    0.7861 H   0  0  0  0  0  0  0  0  0  0  0  0
   -4.1580    0.9854    2.0064 H   0  0  0  0  0  0  0  0  0  0  0  0
    2.9597    0.0674    2.6650 H   0  0  0  0  0  0  0  0  0  0  0  0
    1.2952   -0.2491    2.2383 H   0  0  0  0  0  0  0  0  0  0  0  0
    1.1314    1.3913   -2.4104 H   0  0  0  0  0  0  0  0  0  0  0  0
   -0.4136   -2.8432   -1.9282 H   0  0  0  0  0  0  0  0  0  0  0  0
    4.0920    1.7856    1.5489 H   0  0  0  0  0  0  0  0  0  0  0  0
    0.5867   -5.1381   -1.2755 H   0  0  0  0  0  0  0  0  0  0  0  0
    2.8375    3.1499   -2.3137 H   0  0  0  0  0  0  0  0  0  0  0  0
    4.3263    3.3459   -0.3420 H   0  0  0  0  0  0  0  0  0  0  0  0
  1 14  1  0  0  0  0
  1 20  1  0  0  0  0
  2 16  2  0  0  0  0
  3  7  1  0  0  0  0
  3  8  1  0  0  0  0
  3 13  1  0  0  0  0
  4  5  1  0  0  0  0
  4  6  1  0  0  0  0
  4  9  2  0  0  0  0
  5  7  1  0  0  0  0
  5 23  1  0  0  0  0
  5 24  1  0  0  0  0
  6  8  1  0  0  0  0
  6 25  1  0  0  0  0
  6 26  1  0  0  0  0
  7 27  1  0  0  0  0
  7 28  1  0  0  0  0
  8 29  1  0  0  0  0
  8 30  1  0  0  0  0
  9 10  1  0  0  0  0
  9 11  1  0  0  0  0
 10 12  2  0  0  0  0
 10 17  1  0  0  0  0
 11 14  2  0  0  0  0
 11 18  1  0  0  0  0
 12 15  1  0  0  0  0
 12 19  1  0  0  0  0
 13 31  1  0  0  0  0
 13 32  1  0  0  0  0
 13 33  1  0  0  0  0
 14 16  1  0  0  0  0
 15 16  1  0  0  0  0
 15 34  1  0  0  0  0
 15 35  1  0  0  0  0
 17 21  2  0  0  0  0
 17 36  1  0  0  0  0
 18 20  2  0  0  0  0
 18 37  1  0  0  0  0
 19 22  2  0  0  0  0
 19 38  1  0  0  0  0
 20 39  1  0  0  0  0
 21 22  1  0  0  0  0
 21 40  1  0  0  0  0
 22 41  1  0  0  0  0
M  END
