DB00860
 OpenBabel07062211533D

 54 57  0  0  1  0  0  0  0  0999 V2000
   -2.9868    0.1592   -1.9064 O   0  0  0  0  0  0  0  0  0  0  0  0
    0.3564   -1.9622    1.4967 O   0  0  0  0  0  0  0  0  0  0  0  0
   -4.8918    0.2444    0.9329 O   0  0  0  0  0  0  0  0  0  0  0  0
   -5.8858   -1.9828   -0.1943 O   0  0  0  0  0  0  0  0  0  0  0  0
    6.1349   -0.6271   -2.2459 O   0  0  0  0  0  0  0  0  0  0  0  0
   -1.7029   -0.0466    0.1811 C   0  0  1  0  0  0  0  0  0  0  0  0
   -0.7467    1.0847   -0.2575 C   0  0  2  0  0  0  0  0  0  0  0  0
    0.6711    0.9486    0.3175 C   0  0  1  0  0  0  0  0  0  0  0  0
    1.2863   -0.4091   -0.1738 C   0  0  2  0  0  0  0  0  0  0  0  0
   -3.0061    0.4406   -0.5100 C   0  0  1  0  0  0  0  0  0  0  0  0
   -1.1163   -1.3750   -0.3370 C   0  0  0  0  0  0  0  0  0  0  0  0
   -1.5427    2.3541    0.0339 C   0  0  0  0  0  0  0  0  0  0  0  0
    0.3401   -1.6165    0.1189 C   0  0  2  0  0  0  0  0  0  0  0  0
    2.7905   -0.5812    0.2793 C   0  0  1  0  0  0  0  0  0  0  0  0
   -3.0007    1.9712   -0.2949 C   0  0  0  0  0  0  0  0  0  0  0  0
    1.5425    2.1424   -0.1128 C   0  0  0  0  0  0  0  0  0  0  0  0
   -1.9204   -0.1042    1.7188 C   0  0  0  0  0  0  0  0  0  0  0  0
    2.9935    1.9880    0.3255 C   0  0  0  0  0  0  0  0  0  0  0  0
    3.5482    0.6751   -0.1643 C   0  0  0  0  0  0  0  0  0  0  0  0
   -4.2590   -0.2174   -0.0154 C   0  0  0  0  0  0  0  0  0  0  0  0
    2.9736   -0.7393    1.8056 C   0  0  0  0  0  0  0  0  0  0  0  0
    3.3844   -1.8327   -0.3510 C   0  0  0  0  0  0  0  0  0  0  0  0
    4.6170    0.6542   -0.9761 C   0  0  0  0  0  0  0  0  0  0  0  0
   -4.6915   -1.4707   -0.7465 C   0  0  0  0  0  0  0  0  0  0  0  0
    4.4471   -1.8601   -1.1611 C   0  0  0  0  0  0  0  0  0  0  0  0
    5.1476   -0.6130   -1.5184 C   0  0  0  0  0  0  0  0  0  0  0  0
   -0.6369    1.0425   -1.3540 H   0  0  0  0  0  0  0  0  0  0  0  0
    0.6256    0.9556    1.4112 H   0  0  0  0  0  0  0  0  0  0  0  0
    1.3103   -0.3395   -1.2752 H   0  0  0  0  0  0  0  0  0  0  0  0
   -1.1257   -1.3897   -1.4337 H   0  0  0  0  0  0  0  0  0  0  0  0
   -1.7431   -2.2091   -0.0016 H   0  0  0  0  0  0  0  0  0  0  0  0
   -1.2094    3.1976   -0.5793 H   0  0  0  0  0  0  0  0  0  0  0  0
   -1.4517    2.6523    1.0843 H   0  0  0  0  0  0  0  0  0  0  0  0
    0.7049   -2.4944   -0.4258 H   0  0  0  0  0  0  0  0  0  0  0  0
   -3.6454    2.3007    0.5267 H   0  0  0  0  0  0  0  0  0  0  0  0
   -3.3265    2.5047   -1.1954 H   0  0  0  0  0  0  0  0  0  0  0  0
    1.1443    3.0704    0.3144 H   0  0  0  0  0  0  0  0  0  0  0  0
    1.5039    2.2563   -1.2044 H   0  0  0  0  0  0  0  0  0  0  0  0
   -0.9878   -0.1486    2.2839 H   0  0  0  0  0  0  0  0  0  0  0  0
   -2.4610    0.7677    2.1013 H   0  0  0  0  0  0  0  0  0  0  0  0
   -2.5042   -0.9906    1.9924 H   0  0  0  0  0  0  0  0  0  0  0  0
    3.0666    2.0402    1.4178 H   0  0  0  0  0  0  0  0  0  0  0  0
    3.5722    2.8363   -0.0599 H   0  0  0  0  0  0  0  0  0  0  0  0
    2.6779   -1.7326    2.1607 H   0  0  0  0  0  0  0  0  0  0  0  0
    4.0267   -0.6160    2.0916 H   0  0  0  0  0  0  0  0  0  0  0  0
    2.3991   -0.0041    2.3771 H   0  0  0  0  0  0  0  0  0  0  0  0
    2.9261   -2.7875   -0.1027 H   0  0  0  0  0  0  0  0  0  0  0  0
   -3.6961    0.6699   -2.3332 H   0  0  0  0  0  0  0  0  0  0  0  0
   -0.2066   -2.7463    1.6129 H   0  0  0  0  0  0  0  0  0  0  0  0
    5.1230    1.5650   -1.2784 H   0  0  0  0  0  0  0  0  0  0  0  0
   -3.9223   -2.2388   -0.6536 H   0  0  0  0  0  0  0  0  0  0  0  0
   -4.8848   -1.2653   -1.8020 H   0  0  0  0  0  0  0  0  0  0  0  0
    4.8256   -2.7924   -1.5637 H   0  0  0  0  0  0  0  0  0  0  0  0
   -6.5876   -1.3292   -0.3560 H   0  0  0  0  0  0  0  0  0  0  0  0
  1 10  1  0  0  0  0
  1 48  1  0  0  0  0
  2 13  1  0  0  0  0
  2 49  1  0  0  0  0
  3 20  2  0  0  0  0
  4 24  1  0  0  0  0
  4 54  1  0  0  0  0
  5 26  2  0  0  0  0
  6  7  1  6  0  0  0
  6 11  1  0  0  0  0
  6 17  1  0  0  0  0
  7  8  1  1  0  0  0
  7 12  1  0  0  0  0
  7 27  1  0  0  0  0
  8  9  1  6  0  0  0
  8 16  1  0  0  0  0
  8 28  1  0  0  0  0
  9 13  1  1  0  0  0
  9 29  1  0  0  0  0
 10  6  1  1  0  0  0
 10 15  1  0  0  0  0
 10 20  1  0  0  0  0
 11 13  1  0  0  0  0
 11 30  1  0  0  0  0
 11 31  1  0  0  0  0
 12 15  1  0  0  0  0
 12 32  1  0  0  0  0
 12 33  1  0  0  0  0
 13 34  1  6  0  0  0
 14  9  1  6  0  0  0
 14 19  1  0  0  0  0
 14 21  1  0  0  0  0
 14 22  1  0  0  0  0
 15 35  1  0  0  0  0
 15 36  1  0  0  0  0
 16 18  1  0  0  0  0
 16 37  1  0  0  0  0
 16 38  1  0  0  0  0
 17 39  1  0  0  0  0
 17 40  1  0  0  0  0
 17 41  1  0  0  0  0
 18 19  1  0  0  0  0
 18 42  1  0  0  0  0
 18 43  1  0  0  0  0
 19 23  2  0  0  0  0
 20 24  1  0  0  0  0
 21 44  1  0  0  0  0
 21 45  1  0  0  0  0
 21 46  1  0  0  0  0
 22 25  2  0  0  0  0
 22 47  1  0  0  0  0
 23 26  1  0  0  0  0
 23 50  1  0  0  0  0
 24 51  1  0  0  0  0
 24 52  1  0  0  0  0
 25 26  1  0  0  0  0
 25 53  1  0  0  0  0
M  END
