DB00261
 OpenBabel07062211533D

 23 25  0  0  0  0  0  0  0  0999 V2000
    1.9645   -3.0147   -0.0001 Cl  0  0  0  0  0  0  0  0  0  0  0  0
    4.7686   -1.4958    0.0006 Cl  0  0  0  0  0  0  0  0  0  0  0  0
   -4.8539    0.8084    0.0011 O   0  0  0  0  0  0  0  0  0  0  0  0
   -1.5905   -0.3063   -0.0003 N   0  0  0  0  0  0  0  0  0  0  0  0
   -0.2742    1.6421   -0.0001 N   0  0  0  0  0  0  0  0  0  0  0  0
   -2.6829    1.6591   -0.0007 N   0  0  0  0  0  0  0  0  0  0  0  0
   -0.4882   -1.2394   -0.0003 C   0  0  0  0  0  0  0  0  0  0  0  0
    0.8454   -0.5271    0.0001 C   0  0  0  0  0  0  0  0  0  0  0  0
   -1.5153    1.0631   -0.0007 C   0  0  0  0  0  0  0  0  0  0  0  0
   -2.9698   -0.7237    0.0002 C   0  0  0  0  0  0  0  0  0  0  0  0
    0.9090    0.8817    0.0002 C   0  0  0  0  0  0  0  0  0  0  0  0
   -3.6401    0.6487   -0.0004 C   0  0  0  0  0  0  0  0  0  0  0  0
    2.0301   -1.2752   -0.0001 C   0  0  0  0  0  0  0  0  0  0  0  0
    2.1589    1.5135    0.0001 C   0  0  0  0  0  0  0  0  0  0  0  0
    3.2680   -0.6333   -0.0001 C   0  0  0  0  0  0  0  0  0  0  0  0
    3.3322    0.7585   -0.0000 C   0  0  0  0  0  0  0  0  0  0  0  0
   -0.5659   -1.8699   -0.8933 H   0  0  0  0  0  0  0  0  0  0  0  0
   -0.5662   -1.8703    0.8925 H   0  0  0  0  0  0  0  0  0  0  0  0
   -3.2324   -1.2716    0.9082 H   0  0  0  0  0  0  0  0  0  0  0  0
   -3.2328   -1.2727   -0.9071 H   0  0  0  0  0  0  0  0  0  0  0  0
   -0.1802    2.6513    0.0001 H   0  0  0  0  0  0  0  0  0  0  0  0
    2.2268    2.5988    0.0001 H   0  0  0  0  0  0  0  0  0  0  0  0
    4.2889    1.2750    0.0001 H   0  0  0  0  0  0  0  0  0  0  0  0
  1 13  1  0  0  0  0
  2 15  1  0  0  0  0
  3 12  2  0  0  0  0
  4  7  1  0  0  0  0
  4  9  1  0  0  0  0
  4 10  1  0  0  0  0
  5  9  1  0  0  0  0
  5 11  1  0  0  0  0
  5 21  1  0  0  0  0
  6  9  2  0  0  0  0
  6 12  1  0  0  0  0
  7  8  1  0  0  0  0
  7 17  1  0  0  0  0
  7 18  1  0  0  0  0
  8 11  2  0  0  0  0
  8 13  1  0  0  0  0
 10 12  1  0  0  0  0
 10 19  1  0  0  0  0
 10 20  1  0  0  0  0
 11 14  1  0  0  0  0
 13 15  2  0  0  0  0
 14 16  2  0  0  0  0
 14 22  1  0  0  0  0
 15 16  1  0  0  0  0
 16 23  1  0  0  0  0
M  END
