DB00762
 OpenBabel07062211533D

 81 87  0  0  1  0  0  0  0  0999 V2000
   -2.1323   -1.5373    0.9462 O   0  0  0  0  0  0  0  0  0  0  0  0
   10.3349    1.2663    0.4263 O   0  0  0  0  0  0  0  0  0  0  0  0
   -2.1809   -1.7135   -1.3618 O   0  0  0  0  0  0  0  0  0  0  0  0
    8.7781   -1.8480    1.0879 O   0  0  0  0  0  0  0  0  0  0  0  0
    6.8329    3.5995   -0.0273 O   0  0  0  0  0  0  0  0  0  0  0  0
   11.1340   -0.6715    1.2295 O   0  0  0  0  0  0  0  0  0  0  0  0
   -7.9102    0.1710   -0.1350 N   0  0  0  0  0  0  0  0  0  0  0  0
   -4.1647   -1.7840   -0.1518 N   0  0  0  0  0  0  0  0  0  0  0  0
    5.4912    1.7343    0.2317 N   0  0  0  0  0  0  0  0  0  0  0  0
    3.4158   -1.1831    0.5873 N   0  0  0  0  0  0  0  0  0  0  0  0
   -6.9155   -0.9002   -0.0844 C   0  0  2  0  0  0  0  0  0  0  0  0
   -5.9768   -0.6903    1.1111 C   0  0  0  0  0  0  0  0  0  0  0  0
   -6.1164   -0.9379   -1.3938 C   0  0  0  0  0  0  0  0  0  0  0  0
   -8.8147   -0.0211   -1.2774 C   0  0  0  0  0  0  0  0  0  0  0  0
   -8.6574    0.2387    1.1287 C   0  0  0  0  0  0  0  0  0  0  0  0
   -4.8719   -1.7457    1.1323 C   0  0  0  0  0  0  0  0  0  0  0  0
   -5.0098   -1.9888   -1.3280 C   0  0  0  0  0  0  0  0  0  0  0  0
   -9.8312    1.1175   -1.3737 C   0  0  0  0  0  0  0  0  0  0  0  0
   -9.6688    1.3860    1.1111 C   0  0  0  0  0  0  0  0  0  0  0  0
  -10.6176    1.2703   -0.0766 C   0  0  0  0  0  0  0  0  0  0  0  0
   -2.7767   -1.6818   -0.2856 C   0  0  0  0  0  0  0  0  0  0  0  0
    5.3638    0.3599    0.3500 C   0  0  0  0  0  0  0  0  0  0  0  0
    3.2409    1.2334    0.4058 C   0  0  0  0  0  0  0  0  0  0  0  0
    4.1693    2.3936    0.2589 C   0  0  0  0  0  0  0  0  0  0  0  0
    7.7545    0.1424    0.2232 C   0  0  0  0  0  0  0  0  0  0  0  0
    8.9597   -0.7562    0.1831 C   0  0  2  0  0  0  0  0  0  0  0  0
    3.9475    0.0404    0.4583 C   0  0  0  0  0  0  0  0  0  0  0  0
    7.9047    1.4729    0.0926 C   0  0  0  0  0  0  0  0  0  0  0  0
    1.8697    1.1868    0.4909 C   0  0  0  0  0  0  0  0  0  0  0  0
    6.4293   -0.4451    0.3462 C   0  0  0  0  0  0  0  0  0  0  0  0
    6.7046    2.3833    0.0931 C   0  0  0  0  0  0  0  0  0  0  0  0
    1.2551   -0.0691    0.6273 C   0  0  0  0  0  0  0  0  0  0  0  0
    9.2026   -1.3117   -1.2224 C   0  0  0  0  0  0  0  0  0  0  0  0
    9.2540    2.0843   -0.0726 C   0  0  0  0  0  0  0  0  0  0  0  0
    2.0708   -1.2353    0.6715 C   0  0  0  0  0  0  0  0  0  0  0  0
   10.2238   -0.0598    0.6733 C   0  0  0  0  0  0  0  0  0  0  0  0
    1.0962    2.4631    0.4355 C   0  0  0  0  0  0  0  0  0  0  0  0
   -0.7407   -1.4314    0.8548 C   0  0  0  0  0  0  0  0  0  0  0  0
   -0.1410   -0.1824    0.7196 C   0  0  0  0  0  0  0  0  0  0  0  0
    1.4399   -2.4675    0.8070 C   0  0  0  0  0  0  0  0  0  0  0  0
    0.0499   -2.5734    0.8987 C   0  0  0  0  0  0  0  0  0  0  0  0
   10.3988   -2.2415   -1.2466 C   0  0  0  0  0  0  0  0  0  0  0  0
    0.7128    2.8459   -0.9908 C   0  0  0  0  0  0  0  0  0  0  0  0
   -7.4168   -1.8713    0.0404 H   0  0  0  0  0  0  0  0  0  0  0  0
   -6.4916   -0.7858    2.0715 H   0  0  0  0  0  0  0  0  0  0  0  0
   -5.5223    0.3083    1.0679 H   0  0  0  0  0  0  0  0  0  0  0  0
   -5.6706    0.0450   -1.5952 H   0  0  0  0  0  0  0  0  0  0  0  0
   -6.7328   -1.2106   -2.2553 H   0  0  0  0  0  0  0  0  0  0  0  0
   -8.2843    0.0057   -2.2326 H   0  0  0  0  0  0  0  0  0  0  0  0
   -9.3396   -0.9829   -1.2103 H   0  0  0  0  0  0  0  0  0  0  0  0
   -9.1725   -0.7082    1.3367 H   0  0  0  0  0  0  0  0  0  0  0  0
   -8.0098    0.4642    1.9797 H   0  0  0  0  0  0  0  0  0  0  0  0
   -4.1878   -1.5424    1.9605 H   0  0  0  0  0  0  0  0  0  0  0  0
   -5.2970   -2.7431    1.2972 H   0  0  0  0  0  0  0  0  0  0  0  0
   -5.4388   -2.9949   -1.2501 H   0  0  0  0  0  0  0  0  0  0  0  0
   -4.4118   -1.9573   -2.2444 H   0  0  0  0  0  0  0  0  0  0  0  0
   -9.3114    2.0578   -1.5979 H   0  0  0  0  0  0  0  0  0  0  0  0
  -10.5224    0.9290   -2.2031 H   0  0  0  0  0  0  0  0  0  0  0  0
   -9.1376    2.3452    1.0613 H   0  0  0  0  0  0  0  0  0  0  0  0
  -10.2446    1.3878    2.0436 H   0  0  0  0  0  0  0  0  0  0  0  0
  -11.2637    2.1534   -0.1297 H   0  0  0  0  0  0  0  0  0  0  0  0
  -11.2707    0.3997    0.0601 H   0  0  0  0  0  0  0  0  0  0  0  0
    4.0296    2.9380   -0.6795 H   0  0  0  0  0  0  0  0  0  0  0  0
    4.1393    3.0764    1.1133 H   0  0  0  0  0  0  0  0  0  0  0  0
    6.3239   -1.5213    0.4246 H   0  0  0  0  0  0  0  0  0  0  0  0
    8.3268   -1.8843   -1.5536 H   0  0  0  0  0  0  0  0  0  0  0  0
    9.3590   -0.5040   -1.9478 H   0  0  0  0  0  0  0  0  0  0  0  0
    9.4549    2.3034   -1.1265 H   0  0  0  0  0  0  0  0  0  0  0  0
    9.3156    3.0256    0.4834 H   0  0  0  0  0  0  0  0  0  0  0  0
    1.6954    3.2786    0.8612 H   0  0  0  0  0  0  0  0  0  0  0  0
    0.2104    2.4386    1.0782 H   0  0  0  0  0  0  0  0  0  0  0  0
   -0.8000    0.6794    0.6761 H   0  0  0  0  0  0  0  0  0  0  0  0
    2.0342   -3.3788    0.8441 H   0  0  0  0  0  0  0  0  0  0  0  0
   -0.4069   -3.5537    1.0044 H   0  0  0  0  0  0  0  0  0  0  0  0
   11.3422   -1.7060   -1.1054 H   0  0  0  0  0  0  0  0  0  0  0  0
   10.3277   -3.0375   -0.4994 H   0  0  0  0  0  0  0  0  0  0  0  0
   10.4616   -2.7262   -2.2275 H   0  0  0  0  0  0  0  0  0  0  0  0
    8.5682   -1.4857    1.9661 H   0  0  0  0  0  0  0  0  0  0  0  0
    0.0705    2.0863   -1.4485 H   0  0  0  0  0  0  0  0  0  0  0  0
    0.1677    3.7952   -0.9922 H   0  0  0  0  0  0  0  0  0  0  0  0
    1.5976    2.9633   -1.6253 H   0  0  0  0  0  0  0  0  0  0  0  0
  1 21  1  0  0  0  0
  1 38  1  0  0  0  0
  2 34  1  0  0  0  0
  2 36  1  0  0  0  0
  3 21  2  0  0  0  0
  4 78  1  0  0  0  0
  5 31  2  0  0  0  0
  6 36  2  0  0  0  0
  7 11  1  0  0  0  0
  7 14  1  0  0  0  0
  7 15  1  0  0  0  0
  8 16  1  0  0  0  0
  8 17  1  0  0  0  0
  8 21  1  0  0  0  0
  9 22  1  0  0  0  0
  9 24  1  0  0  0  0
  9 31  1  0  0  0  0
 10 27  2  0  0  0  0
 10 35  1  0  0  0  0
 11 12  1  0  0  0  0
 11 13  1  0  0  0  0
 11 44  1  1  0  0  0
 12 16  1  0  0  0  0
 12 45  1  0  0  0  0
 12 46  1  0  0  0  0
 13 17  1  0  0  0  0
 13 47  1  0  0  0  0
 13 48  1  0  0  0  0
 14 18  1  0  0  0  0
 14 49  1  0  0  0  0
 14 50  1  0  0  0  0
 15 19  1  0  0  0  0
 15 51  1  0  0  0  0
 15 52  1  0  0  0  0
 16 53  1  0  0  0  0
 16 54  1  0  0  0  0
 17 55  1  0  0  0  0
 17 56  1  0  0  0  0
 18 20  1  0  0  0  0
 18 57  1  0  0  0  0
 18 58  1  0  0  0  0
 19 20  1  0  0  0  0
 19 59  1  0  0  0  0
 19 60  1  0  0  0  0
 20 61  1  0  0  0  0
 20 62  1  0  0  0  0
 22 27  1  0  0  0  0
 22 30  2  0  0  0  0
 23 24  1  0  0  0  0
 23 27  1  0  0  0  0
 23 29  2  0  0  0  0
 24 63  1  0  0  0  0
 24 64  1  0  0  0  0
 25 26  1  0  0  0  0
 25 28  2  0  0  0  0
 25 30  1  0  0  0  0
 26  4  1  1  0  0  0
 26 33  1  0  0  0  0
 26 36  1  0  0  0  0
 28 31  1  0  0  0  0
 28 34  1  0  0  0  0
 29 32  1  0  0  0  0
 29 37  1  0  0  0  0
 30 65  1  0  0  0  0
 32 35  2  0  0  0  0
 32 39  1  0  0  0  0
 33 42  1  0  0  0  0
 33 66  1  0  0  0  0
 33 67  1  0  0  0  0
 34 68  1  0  0  0  0
 34 69  1  0  0  0  0
 35 40  1  0  0  0  0
 37 43  1  0  0  0  0
 37 70  1  0  0  0  0
 37 71  1  0  0  0  0
 38 39  2  0  0  0  0
 38 41  1  0  0  0  0
 39 72  1  0  0  0  0
 40 41  2  0  0  0  0
 40 73  1  0  0  0  0
 41 74  1  0  0  0  0
 42 75  1  0  0  0  0
 42 76  1  0  0  0  0
 42 77  1  0  0  0  0
 43 79  1  0  0  0  0
 43 80  1  0  0  0  0
 43 81  1  0  0  0  0
M  END
