DB00635
 OpenBabel07062211533D

 52 55  0  0  1  0  0  0  0  0999 V2000
   -2.9124    0.2085    2.0650 O   0  0  0  0  0  0  0  0  0  0  0  0
    0.9036    2.7609   -0.5824 O   0  0  0  0  0  0  0  0  0  0  0  0
   -4.0602    1.9749   -0.1675 O   0  0  0  0  0  0  0  0  0  0  0  0
   -6.5396    0.9596    0.4603 O   0  0  0  0  0  0  0  0  0  0  0  0
    6.4363    0.2036    1.8724 O   0  0  0  0  0  0  0  0  0  0  0  0
   -1.6101    0.4281   -0.0291 C   0  0  1  0  0  0  0  0  0  0  0  0
   -0.7558   -0.8079    0.3455 C   0  0  2  0  0  0  0  0  0  0  0  0
    0.6475   -0.7813   -0.2792 C   0  0  1  0  0  0  0  0  0  0  0  0
    1.4036    0.4937    0.2200 C   0  0  1  0  0  0  0  0  0  0  0  0
   -2.9455    0.0348    0.6517 C   0  0  1  0  0  0  0  0  0  0  0  0
   -1.6732   -1.9851    0.0233 C   0  0  0  0  0  0  0  0  0  0  0  0
   -0.9057    1.6699    0.5275 C   0  0  0  0  0  0  0  0  0  0  0  0
   -3.0884   -1.4757    0.3640 C   0  0  0  0  0  0  0  0  0  0  0  0
    2.8771    0.5751   -0.3161 C   0  0  1  0  0  0  0  0  0  0  0  0
    1.4323   -2.0561    0.0645 C   0  0  0  0  0  0  0  0  0  0  0  0
    0.5135    1.7368   -0.0251 C   0  0  0  0  0  0  0  0  0  0  0  0
   -1.8092    0.6002   -1.5606 C   0  0  0  0  0  0  0  0  0  0  0  0
    2.8537   -2.0067   -0.4844 C   0  0  0  0  0  0  0  0  0  0  0  0
    3.5595   -0.7641   -0.0015 C   0  0  0  0  0  0  0  0  0  0  0  0
   -4.1511    0.8056    0.2034 C   0  0  0  0  0  0  0  0  0  0  0  0
    2.9449    0.8123   -1.8417 C   0  0  0  0  0  0  0  0  0  0  0  0
    3.6169    1.7306    0.3464 C   0  0  0  0  0  0  0  0  0  0  0  0
    4.6961   -0.8756    0.7045 C   0  0  0  0  0  0  0  0  0  0  0  0
   -5.4708    0.0647    0.2358 C   0  0  0  0  0  0  0  0  0  0  0  0
    4.7471    1.6239    1.0522 C   0  0  0  0  0  0  0  0  0  0  0  0
    5.3815    0.3099    1.2559 C   0  0  0  0  0  0  0  0  0  0  0  0
   -0.6130   -0.8189    1.4386 H   0  0  0  0  0  0  0  0  0  0  0  0
    0.5510   -0.7465   -1.3696 H   0  0  0  0  0  0  0  0  0  0  0  0
    1.4714    0.4274    1.3188 H   0  0  0  0  0  0  0  0  0  0  0  0
   -1.4206   -2.8728    0.6123 H   0  0  0  0  0  0  0  0  0  0  0  0
   -1.6113   -2.2625   -1.0351 H   0  0  0  0  0  0  0  0  0  0  0  0
   -0.8188    1.6518    1.6193 H   0  0  0  0  0  0  0  0  0  0  0  0
   -1.4401    2.5864    0.2553 H   0  0  0  0  0  0  0  0  0  0  0  0
   -3.7329   -1.7004   -0.4923 H   0  0  0  0  0  0  0  0  0  0  0  0
   -3.4768   -2.0208    1.2322 H   0  0  0  0  0  0  0  0  0  0  0  0
    0.9259   -2.9352   -0.3509 H   0  0  0  0  0  0  0  0  0  0  0  0
    1.4637   -2.1935    1.1534 H   0  0  0  0  0  0  0  0  0  0  0  0
   -2.3705   -0.2269   -2.0063 H   0  0  0  0  0  0  0  0  0  0  0  0
   -2.3462    1.5237   -1.7983 H   0  0  0  0  0  0  0  0  0  0  0  0
   -0.8597    0.6686   -2.0996 H   0  0  0  0  0  0  0  0  0  0  0  0
    2.8374   -2.0234   -1.5801 H   0  0  0  0  0  0  0  0  0  0  0  0
    3.3836   -2.9153   -0.1736 H   0  0  0  0  0  0  0  0  0  0  0  0
    2.3527    0.0871   -2.4079 H   0  0  0  0  0  0  0  0  0  0  0  0
    2.5861    1.8075   -2.1243 H   0  0  0  0  0  0  0  0  0  0  0  0
    3.9776    0.7367   -2.2064 H   0  0  0  0  0  0  0  0  0  0  0  0
    3.2177    2.7332    0.2185 H   0  0  0  0  0  0  0  0  0  0  0  0
   -2.8297    1.1580    2.2559 H   0  0  0  0  0  0  0  0  0  0  0  0
    5.1462   -1.8402    0.9146 H   0  0  0  0  0  0  0  0  0  0  0  0
   -5.4866   -0.6497    1.0623 H   0  0  0  0  0  0  0  0  0  0  0  0
   -5.6317   -0.4582   -0.7107 H   0  0  0  0  0  0  0  0  0  0  0  0
    5.2283    2.4953    1.4810 H   0  0  0  0  0  0  0  0  0  0  0  0
   -6.5952    1.5480   -0.3120 H   0  0  0  0  0  0  0  0  0  0  0  0
  1 10  1  0  0  0  0
  1 47  1  0  0  0  0
  2 16  2  0  0  0  0
  3 20  2  0  0  0  0
  4 24  1  0  0  0  0
  4 52  1  0  0  0  0
  5 26  2  0  0  0  0
  6  7  1  1  0  0  0
  6 12  1  0  0  0  0
  6 17  1  0  0  0  0
  7  8  1  6  0  0  0
  7 11  1  0  0  0  0
  7 27  1  0  0  0  0
  8  9  1  1  0  0  0
  8 15  1  0  0  0  0
  8 28  1  0  0  0  0
  9 14  1  6  0  0  0
  9 16  1  0  0  0  0
  9 29  1  0  0  0  0
 10  6  1  6  0  0  0
 10 13  1  0  0  0  0
 10 20  1  0  0  0  0
 11 13  1  0  0  0  0
 11 30  1  0  0  0  0
 11 31  1  0  0  0  0
 12 16  1  0  0  0  0
 12 32  1  0  0  0  0
 12 33  1  0  0  0  0
 13 34  1  0  0  0  0
 13 35  1  0  0  0  0
 14 19  1  0  0  0  0
 14 21  1  6  0  0  0
 14 22  1  0  0  0  0
 15 18  1  0  0  0  0
 15 36  1  0  0  0  0
 15 37  1  0  0  0  0
 17 38  1  0  0  0  0
 17 39  1  0  0  0  0
 17 40  1  0  0  0  0
 18 19  1  0  0  0  0
 18 41  1  0  0  0  0
 18 42  1  0  0  0  0
 19 23  2  0  0  0  0
 20 24  1  0  0  0  0
 21 43  1  0  0  0  0
 21 44  1  0  0  0  0
 21 45  1  0  0  0  0
 22 25  2  0  0  0  0
 22 46  1  0  0  0  0
 23 26  1  0  0  0  0
 23 48  1  0  0  0  0
 24 49  1  0  0  0  0
 24 50  1  0  0  0  0
 25 26  1  0  0  0  0
 25 51  1  0  0  0  0
M  END
