DB00733
 OpenBabel07062211533D

 19 19  0  0  0  0  0  0  0  0999 V2000
    3.9527   -0.2757   -0.4787 O   0  0  0  0  0  0  0  0  0  0  0  0
   -0.8119   -0.6541    0.0035 N   0  0  0  0  0  0  0  0  0  0  0  0
    2.8237    0.0465    0.0241 N   0  0  0  0  0  0  0  0  0  0  0  0
    0.4814   -0.0710    0.0069 C   0  0  0  0  0  0  0  0  0  0  0  0
   -1.9325    0.1800   -0.0135 C   0  0  0  0  0  0  0  0  0  0  0  0
    0.5455    1.4001   -0.0090 C   0  0  0  0  0  0  0  0  0  0  0  0
   -0.9942   -2.1083    0.0171 C   0  0  0  0  0  0  0  0  0  0  0  0
   -1.8702    1.5197   -0.0275 C   0  0  0  0  0  0  0  0  0  0  0  0
   -0.5701    2.1490   -0.0257 C   0  0  0  0  0  0  0  0  0  0  0  0
    1.6455   -0.7475    0.0237 C   0  0  0  0  0  0  0  0  0  0  0  0
   -2.8859   -0.3362   -0.0154 H   0  0  0  0  0  0  0  0  0  0  0  0
    1.4691    1.9627   -0.0561 H   0  0  0  0  0  0  0  0  0  0  0  0
   -0.5329   -2.5433    0.9105 H   0  0  0  0  0  0  0  0  0  0  0  0
   -0.5408   -2.5583   -0.8729 H   0  0  0  0  0  0  0  0  0  0  0  0
   -2.0522   -2.3936    0.0246 H   0  0  0  0  0  0  0  0  0  0  0  0
   -2.7600    2.1366   -0.0420 H   0  0  0  0  0  0  0  0  0  0  0  0
   -0.5229    3.2316   -0.0571 H   0  0  0  0  0  0  0  0  0  0  0  0
    1.7371   -1.8246   -0.0131 H   0  0  0  0  0  0  0  0  0  0  0  0
    2.8186    0.8864    0.6007 H   0  0  0  0  0  0  0  0  0  0  0  0
  1  3  2  0  0  0  0
  2  4  1  0  0  0  0
  2  5  1  0  0  0  0
  2  7  1  0  0  0  0
  3 10  1  0  0  0  0
  3 19  1  0  0  0  0
  4  6  1  0  0  0  0
  4 10  2  0  0  0  0
  5  8  2  0  0  0  0
  5 11  1  0  0  0  0
  6  9  2  0  0  0  0
  6 12  1  0  0  0  0
  7 13  1  0  0  0  0
  7 14  1  0  0  0  0
  7 15  1  0  0  0  0
  8  9  1  0  0  0  0
  8 16  1  0  0  0  0
  9 17  1  0  0  0  0
 10 18  1  0  0  0  0
M  END
