DB00241
 OpenBabel07062211533D

 32 32  0  0  0  0  0  0  0  0999 V2000
    1.1344   -0.9106    2.1215 O   0  0  0  0  0  0  0  0  0  0  0  0
   -0.7861    0.5853   -1.8939 O   0  0  0  0  0  0  0  0  0  0  0  0
   -0.6203   -3.8903   -0.8950 O   0  0  0  0  0  0  0  0  0  0  0  0
    0.1682   -2.3901    0.6584 N   0  0  0  0  0  0  0  0  0  0  0  0
   -0.7904   -1.6428   -1.3477 N   0  0  0  0  0  0  0  0  0  0  0  0
   -0.3266    0.0005    0.4141 C   0  0  0  0  0  0  0  0  0  0  0  0
    0.4750    1.3063    0.5172 C   0  0  0  0  0  0  0  0  0  0  0  0
    1.9014    1.1818   -0.0312 C   0  0  0  0  0  0  0  0  0  0  0  0
   -1.6795    0.1768    1.1266 C   0  0  0  0  0  0  0  0  0  0  0  0
    0.4191   -1.1142    1.1408 C   0  0  0  0  0  0  0  0  0  0  0  0
   -0.6289   -0.2977   -1.0510 C   0  0  0  0  0  0  0  0  0  0  0  0
    2.7104    0.0937    0.6762 C   0  0  0  0  0  0  0  0  0  0  0  0
    1.8444    0.8900   -1.5326 C   0  0  0  0  0  0  0  0  0  0  0  0
   -2.5125    1.2037    0.4345 C   0  0  0  0  0  0  0  0  0  0  0  0
   -0.4426   -2.7223   -0.5448 C   0  0  0  0  0  0  0  0  0  0  0  0
   -3.7071    0.9462   -0.1096 C   0  0  0  0  0  0  0  0  0  0  0  0
   -0.0125    2.1339   -0.0121 H   0  0  0  0  0  0  0  0  0  0  0  0
    0.5426    1.6211    1.5680 H   0  0  0  0  0  0  0  0  0  0  0  0
    2.4067    2.1449    0.1156 H   0  0  0  0  0  0  0  0  0  0  0  0
   -1.5286    0.4855    2.1692 H   0  0  0  0  0  0  0  0  0  0  0  0
   -2.2159   -0.7807    1.1738 H   0  0  0  0  0  0  0  0  0  0  0  0
    2.5491   -0.9339    0.3447 H   0  0  0  0  0  0  0  0  0  0  0  0
    2.8120    0.2669    1.7513 H   0  0  0  0  0  0  0  0  0  0  0  0
    3.7502    0.2465    0.3404 H   0  0  0  0  0  0  0  0  0  0  0  0
    1.6143   -0.1453   -1.7896 H   0  0  0  0  0  0  0  0  0  0  0  0
    2.8567    1.0377   -1.9355 H   0  0  0  0  0  0  0  0  0  0  0  0
    1.2305    1.6130   -2.0757 H   0  0  0  0  0  0  0  0  0  0  0  0
    0.5404   -3.1627    1.2035 H   0  0  0  0  0  0  0  0  0  0  0  0
   -1.1254   -1.8645   -2.2812 H   0  0  0  0  0  0  0  0  0  0  0  0
   -2.1671    2.2335    0.4236 H   0  0  0  0  0  0  0  0  0  0  0  0
   -4.2826    1.7405   -0.5722 H   0  0  0  0  0  0  0  0  0  0  0  0
   -4.1293   -0.0526   -0.1073 H   0  0  0  0  0  0  0  0  0  0  0  0
  1 10  2  0  0  0  0
  2 11  2  0  0  0  0
  3 15  2  0  0  0  0
  4 10  1  0  0  0  0
  4 15  1  0  0  0  0
  4 28  1  0  0  0  0
  5 11  1  0  0  0  0
  5 15  1  0  0  0  0
  5 29  1  0  0  0  0
  6  7  1  0  0  0  0
  6  9  1  0  0  0  0
  6 10  1  0  0  0  0
  6 11  1  0  0  0  0
  7  8  1  0  0  0  0
  7 17  1  0  0  0  0
  7 18  1  0  0  0  0
  8 12  1  0  0  0  0
  8 13  1  0  0  0  0
  8 19  1  0  0  0  0
  9 14  1  0  0  0  0
  9 20  1  0  0  0  0
  9 21  1  0  0  0  0
 12 22  1  0  0  0  0
 12 23  1  0  0  0  0
 12 24  1  0  0  0  0
 13 25  1  0  0  0  0
 13 26  1  0  0  0  0
 13 27  1  0  0  0  0
 14 16  2  0  0  0  0
 14 30  1  0  0  0  0
 16 31  1  0  0  0  0
 16 32  1  0  0  0  0
M  END
