DB00661
 OpenBabel07062211533D

 71 72  0  0  1  0  0  0  0  0999 V2000
   -3.4293    3.5593   -1.9551 O   0  0  0  0  0  0  0  0  0  0  0  0
   -1.2270    4.3745   -0.4676 O   0  0  0  0  0  0  0  0  0  0  0  0
    6.7820   -0.3682   -0.1743 O   0  0  0  0  0  0  0  0  0  0  0  0
    6.1151    2.2894    0.2940 O   0  0  0  0  0  0  0  0  0  0  0  0
    0.4265   -2.9790   -0.6666 N   0  0  0  0  0  0  0  0  0  0  0  0
   -5.5008   -1.3408   -1.2776 N   0  0  0  0  0  0  0  0  0  0  0  0
   -3.4101   -0.8370    0.2753 C   0  0  2  0  0  0  0  0  0  0  0  0
   -3.8653   -0.9937    1.7884 C   0  0  0  0  0  0  0  0  0  0  0  0
   -2.3218   -1.9156   -0.0718 C   0  0  0  0  0  0  0  0  0  0  0  0
   -1.5514   -1.6708   -1.3862 C   0  0  0  0  0  0  0  0  0  0  0  0
   -2.8199    0.5783    0.0709 C   0  0  0  0  0  0  0  0  0  0  0  0
   -0.5689   -2.7985   -1.7162 C   0  0  0  0  0  0  0  0  0  0  0  0
   -4.3414   -2.4083    2.1623 C   0  0  0  0  0  0  0  0  0  0  0  0
   -4.9571    0.0116    2.2014 C   0  0  0  0  0  0  0  0  0  0  0  0
   -4.5863   -1.1110   -0.6003 C   0  0  0  0  0  0  0  0  0  0  0  0
   -3.3929    1.4453   -0.8596 C   0  0  0  0  0  0  0  0  0  0  0  0
   -1.7149    0.9874    0.8173 C   0  0  0  0  0  0  0  0  0  0  0  0
    1.4686   -1.9553   -0.7625 C   0  0  0  0  0  0  0  0  0  0  0  0
   -2.8608    2.7216   -1.0436 C   0  0  0  0  0  0  0  0  0  0  0  0
    1.0196   -4.3154   -0.7427 C   0  0  0  0  0  0  0  0  0  0  0  0
   -1.1827    2.2636    0.6331 C   0  0  0  0  0  0  0  0  0  0  0  0
    2.1428   -1.7316    0.5917 C   0  0  0  0  0  0  0  0  0  0  0  0
   -1.7557    3.1308   -0.2973 C   0  0  0  0  0  0  0  0  0  0  0  0
    3.2037   -0.6629    0.5118 C   0  0  0  0  0  0  0  0  0  0  0  0
    4.5194   -1.0077    0.2028 C   0  0  0  0  0  0  0  0  0  0  0  0
    2.8690    0.6708    0.7468 C   0  0  0  0  0  0  0  0  0  0  0  0
    5.5006   -0.0190    0.1285 C   0  0  0  0  0  0  0  0  0  0  0  0
   -4.5555    3.0641   -2.6764 C   0  0  0  0  0  0  0  0  0  0  0  0
    3.8503    1.6594    0.6728 C   0  0  0  0  0  0  0  0  0  0  0  0
    5.1660    1.3147    0.3636 C   0  0  0  0  0  0  0  0  0  0  0  0
   -0.0977    4.7143    0.3345 C   0  0  0  0  0  0  0  0  0  0  0  0
    7.0404   -1.7525   -0.4004 C   0  0  0  0  0  0  0  0  0  0  0  0
    5.6901    3.6271    0.5478 C   0  0  0  0  0  0  0  0  0  0  0  0
   -3.0007   -0.7953    2.4357 H   0  0  0  0  0  0  0  0  0  0  0  0
   -1.5947   -1.9560    0.7498 H   0  0  0  0  0  0  0  0  0  0  0  0
   -2.7833   -2.9109   -0.1235 H   0  0  0  0  0  0  0  0  0  0  0  0
   -1.0258   -0.7128   -1.3639 H   0  0  0  0  0  0  0  0  0  0  0  0
   -2.2699   -1.6026   -2.2125 H   0  0  0  0  0  0  0  0  0  0  0  0
   -0.0985   -2.6163   -2.6914 H   0  0  0  0  0  0  0  0  0  0  0  0
   -1.1648   -3.7140   -1.8313 H   0  0  0  0  0  0  0  0  0  0  0  0
   -3.5483   -3.1485    2.0228 H   0  0  0  0  0  0  0  0  0  0  0  0
   -4.6301   -2.4493    3.2188 H   0  0  0  0  0  0  0  0  0  0  0  0
   -5.2097   -2.7163    1.5715 H   0  0  0  0  0  0  0  0  0  0  0  0
   -5.1892   -0.0936    3.2673 H   0  0  0  0  0  0  0  0  0  0  0  0
   -5.8871   -0.1471    1.6461 H   0  0  0  0  0  0  0  0  0  0  0  0
   -4.6374    1.0462    2.0462 H   0  0  0  0  0  0  0  0  0  0  0  0
   -4.2479    1.1109   -1.4282 H   0  0  0  0  0  0  0  0  0  0  0  0
   -1.2435    0.3272    1.5395 H   0  0  0  0  0  0  0  0  0  0  0  0
    1.0503   -0.9905   -1.0728 H   0  0  0  0  0  0  0  0  0  0  0  0
    2.2089   -2.2106   -1.5333 H   0  0  0  0  0  0  0  0  0  0  0  0
    0.2463   -5.0829   -0.6218 H   0  0  0  0  0  0  0  0  0  0  0  0
    1.7395   -4.4846    0.0641 H   0  0  0  0  0  0  0  0  0  0  0  0
    1.5254   -4.4900   -1.6994 H   0  0  0  0  0  0  0  0  0  0  0  0
    1.3945   -1.4430    1.3422 H   0  0  0  0  0  0  0  0  0  0  0  0
    2.6005   -2.6534    0.9700 H   0  0  0  0  0  0  0  0  0  0  0  0
   -0.3233    2.5126    1.2458 H   0  0  0  0  0  0  0  0  0  0  0  0
    4.7188   -2.0596    0.0275 H   0  0  0  0  0  0  0  0  0  0  0  0
    1.8470    0.9504    0.9870 H   0  0  0  0  0  0  0  0  0  0  0  0
   -4.8772    3.8614   -3.3549 H   0  0  0  0  0  0  0  0  0  0  0  0
   -5.4018    2.8552   -2.0130 H   0  0  0  0  0  0  0  0  0  0  0  0
   -4.2901    2.2057   -3.3031 H   0  0  0  0  0  0  0  0  0  0  0  0
    3.5173    2.6733    0.8666 H   0  0  0  0  0  0  0  0  0  0  0  0
   -0.3477    4.7222    1.4009 H   0  0  0  0  0  0  0  0  0  0  0  0
    0.7626    4.0732    0.1127 H   0  0  0  0  0  0  0  0  0  0  0  0
    0.1910    5.7364    0.0682 H   0  0  0  0  0  0  0  0  0  0  0  0
    6.8528   -2.3505    0.4980 H   0  0  0  0  0  0  0  0  0  0  0  0
    6.4957   -2.1278   -1.2736 H   0  0  0  0  0  0  0  0  0  0  0  0
    8.1075   -1.8479   -0.6275 H   0  0  0  0  0  0  0  0  0  0  0  0
    6.5717    4.2692    0.4501 H   0  0  0  0  0  0  0  0  0  0  0  0
    5.3223    3.7462    1.5726 H   0  0  0  0  0  0  0  0  0  0  0  0
    4.9642    3.9684   -0.1981 H   0  0  0  0  0  0  0  0  0  0  0  0
  1 19  1  0  0  0  0
  1 28  1  0  0  0  0
  2 23  1  0  0  0  0
  2 31  1  0  0  0  0
  3 27  1  0  0  0  0
  3 32  1  0  0  0  0
  4 30  1  0  0  0  0
  4 33  1  0  0  0  0
  5 12  1  0  0  0  0
  5 18  1  0  0  0  0
  5 20  1  0  0  0  0
  6 15  3  0  0  0  0
  7  8  1  0  0  0  0
  7  9  1  0  0  0  0
  7 11  1  0  0  0  0
  7 15  1  6  0  0  0
  8 13  1  0  0  0  0
  8 14  1  0  0  0  0
  8 34  1  0  0  0  0
  9 10  1  0  0  0  0
  9 35  1  0  0  0  0
  9 36  1  0  0  0  0
 10 12  1  0  0  0  0
 10 37  1  0  0  0  0
 10 38  1  0  0  0  0
 11 16  2  0  0  0  0
 11 17  1  0  0  0  0
 12 39  1  0  0  0  0
 12 40  1  0  0  0  0
 13 41  1  0  0  0  0
 13 42  1  0  0  0  0
 13 43  1  0  0  0  0
 14 44  1  0  0  0  0
 14 45  1  0  0  0  0
 14 46  1  0  0  0  0
 16 19  1  0  0  0  0
 16 47  1  0  0  0  0
 17 21  2  0  0  0  0
 17 48  1  0  0  0  0
 18 22  1  0  0  0  0
 18 49  1  0  0  0  0
 18 50  1  0  0  0  0
 19 23  2  0  0  0  0
 20 51  1  0  0  0  0
 20 52  1  0  0  0  0
 20 53  1  0  0  0  0
 21 23  1  0  0  0  0
 21 56  1  0  0  0  0
 22 24  1  0  0  0  0
 22 54  1  0  0  0  0
 22 55  1  0  0  0  0
 24 25  2  0  0  0  0
 24 26  1  0  0  0  0
 25 27  1  0  0  0  0
 25 57  1  0  0  0  0
 26 29  2  0  0  0  0
 26 58  1  0  0  0  0
 27 30  2  0  0  0  0
 28 59  1  0  0  0  0
 28 60  1  0  0  0  0
 28 61  1  0  0  0  0
 29 30  1  0  0  0  0
 29 62  1  0  0  0  0
 31 63  1  0  0  0  0
 31 64  1  0  0  0  0
 31 65  1  0  0  0  0
 32 66  1  0  0  0  0
 32 67  1  0  0  0  0
 32 68  1  0  0  0  0
 33 69  1  0  0  0  0
 33 70  1  0  0  0  0
 33 71  1  0  0  0  0
M  END
