DB00791
 OpenBabel07062211533D

 26 26  0  0  0  0  0  0  0  0999 V2000
   -3.1510   -3.2060    0.0731 Cl  0  0  0  0  0  0  0  0  0  0  0  0
   -1.1738    2.4918   -2.0435 Cl  0  0  0  0  0  0  0  0  0  0  0  0
    0.7666   -0.6229   -2.3175 O   0  0  0  0  0  0  0  0  0  0  0  0
    4.6197   -0.5250    0.2153 O   0  0  0  0  0  0  0  0  0  0  0  0
   -0.7901    0.0735   -0.1498 N   0  0  0  0  0  0  0  0  0  0  0  0
    2.6983   -0.5772   -1.0609 N   0  0  0  0  0  0  0  0  0  0  0  0
    2.6030   -0.0405    1.2101 N   0  0  0  0  0  0  0  0  0  0  0  0
   -1.6288   -1.0358   -0.5888 C   0  0  0  0  0  0  0  0  0  0  0  0
   -1.4932    1.2428    0.3654 C   0  0  0  0  0  0  0  0  0  0  0  0
    0.5583   -0.0647   -0.0124 C   0  0  0  0  0  0  0  0  0  0  0  0
   -2.1165   -1.8536    0.5968 C   0  0  0  0  0  0  0  0  0  0  0  0
   -0.9702    2.5195   -0.2741 C   0  0  0  0  0  0  0  0  0  0  0  0
    1.3270   -0.4447   -1.2384 C   0  0  0  0  0  0  0  0  0  0  0  0
    1.2467    0.1106    1.1231 C   0  0  0  0  0  0  0  0  0  0  0  0
    3.3987   -0.3904    0.1318 C   0  0  0  0  0  0  0  0  0  0  0  0
   -2.4831   -0.6509   -1.1606 H   0  0  0  0  0  0  0  0  0  0  0  0
   -1.0929   -1.7015   -1.2744 H   0  0  0  0  0  0  0  0  0  0  0  0
   -2.5719    1.1680    0.1758 H   0  0  0  0  0  0  0  0  0  0  0  0
   -1.3834    1.3010    1.4550 H   0  0  0  0  0  0  0  0  0  0  0  0
   -1.2770   -2.2797    1.1550 H   0  0  0  0  0  0  0  0  0  0  0  0
   -2.7040   -1.2419    1.2885 H   0  0  0  0  0  0  0  0  0  0  0  0
   -1.5241    3.3840    0.1043 H   0  0  0  0  0  0  0  0  0  0  0  0
    0.0910    2.6854   -0.0664 H   0  0  0  0  0  0  0  0  0  0  0  0
    0.7658    0.3811    2.0562 H   0  0  0  0  0  0  0  0  0  0  0  0
    3.2450   -0.8348   -1.8779 H   0  0  0  0  0  0  0  0  0  0  0  0
    3.0398    0.1121    2.1144 H   0  0  0  0  0  0  0  0  0  0  0  0
  1 11  1  0  0  0  0
  2 12  1  0  0  0  0
  3 13  2  0  0  0  0
  4 15  2  0  0  0  0
  5  8  1  0  0  0  0
  5  9  1  0  0  0  0
  5 10  1  0  0  0  0
  6 13  1  0  0  0  0
  6 15  1  0  0  0  0
  6 25  1  0  0  0  0
  7 14  1  0  0  0  0
  7 15  1  0  0  0  0
  7 26  1  0  0  0  0
  8 11  1  0  0  0  0
  8 16  1  0  0  0  0
  8 17  1  0  0  0  0
  9 12  1  0  0  0  0
  9 18  1  0  0  0  0
  9 19  1  0  0  0  0
 10 13  1  0  0  0  0
 10 14  2  0  0  0  0
 11 20  1  0  0  0  0
 11 21  1  0  0  0  0
 12 22  1  0  0  0  0
 12 23  1  0  0  0  0
 14 24  1  0  0  0  0
M  END
