DB00263
 OpenBabel07062211533D

 31 32  0  0  0  0  0  0  0  0999 V2000
    0.4624   -1.3936    0.9131 S   0  0  0  0  0  0  0  0  0  0  0  0
   -2.4951   -1.7770    0.2278 O   0  0  0  0  0  0  0  0  0  0  0  0
    0.4439   -1.4799    2.3686 O   0  0  0  0  0  0  0  0  0  0  0  0
    0.1983   -2.5978    0.1349 O   0  0  0  0  0  0  0  0  0  0  0  0
   -0.6296   -0.1488    0.4373 N   0  0  0  0  0  0  0  0  0  0  0  0
   -3.8639   -1.7570   -0.0102 N   0  0  0  0  0  0  0  0  0  0  0  0
    5.7479    0.7981   -0.7049 N   0  0  0  0  0  0  0  0  0  0  0  0
    2.0142   -0.7500    0.4379 C   0  0  0  0  0  0  0  0  0  0  0  0
   -2.0075   -0.5016    0.2245 C   0  0  0  0  0  0  0  0  0  0  0  0
   -3.0480    0.3693   -0.0152 C   0  0  0  0  0  0  0  0  0  0  0  0
   -4.1712   -0.4645   -0.1520 C   0  0  0  0  0  0  0  0  0  0  0  0
    2.7515    0.0250    1.3331 C   0  0  0  0  0  0  0  0  0  0  0  0
    2.5168   -1.0106   -0.8371 C   0  0  0  0  0  0  0  0  0  0  0  0
   -2.9919    1.8381   -0.1068 C   0  0  0  0  0  0  0  0  0  0  0  0
    3.9912    0.5395    0.9535 C   0  0  0  0  0  0  0  0  0  0  0  0
    3.7566   -0.4962   -1.2165 C   0  0  0  0  0  0  0  0  0  0  0  0
    4.4937    0.2790   -0.3212 C   0  0  0  0  0  0  0  0  0  0  0  0
   -5.5652   -0.0735   -0.4207 C   0  0  0  0  0  0  0  0  0  0  0  0
   -0.2951    0.7569    0.0885 H   0  0  0  0  0  0  0  0  0  0  0  0
    2.3770    0.2471    2.3284 H   0  0  0  0  0  0  0  0  0  0  0  0
    1.9558   -1.6063   -1.5517 H   0  0  0  0  0  0  0  0  0  0  0  0
   -2.4150    2.2593    0.7231 H   0  0  0  0  0  0  0  0  0  0  0  0
   -2.5162    2.1441   -1.0442 H   0  0  0  0  0  0  0  0  0  0  0  0
   -3.9896    2.2867   -0.0735 H   0  0  0  0  0  0  0  0  0  0  0  0
    4.5555    1.1434    1.6595 H   0  0  0  0  0  0  0  0  0  0  0  0
    4.1369   -0.7052   -2.2132 H   0  0  0  0  0  0  0  0  0  0  0  0
   -5.6278    0.5295   -1.3325 H   0  0  0  0  0  0  0  0  0  0  0  0
   -6.2154   -0.9447   -0.5535 H   0  0  0  0  0  0  0  0  0  0  0  0
   -5.9644    0.5180    0.4097 H   0  0  0  0  0  0  0  0  0  0  0  0
    6.2821    1.3615   -0.0570 H   0  0  0  0  0  0  0  0  0  0  0  0
    6.1119    0.6107   -1.6297 H   0  0  0  0  0  0  0  0  0  0  0  0
  1  3  2  0  0  0  0
  1  4  2  0  0  0  0
  1  5  1  0  0  0  0
  1  8  1  0  0  0  0
  2  6  1  0  0  0  0
  2  9  1  0  0  0  0
  5  9  1  0  0  0  0
  5 19  1  0  0  0  0
  6 11  2  0  0  0  0
  7 17  1  0  0  0  0
  7 30  1  0  0  0  0
  7 31  1  0  0  0  0
  8 12  2  0  0  0  0
  8 13  1  0  0  0  0
  9 10  2  0  0  0  0
 10 11  1  0  0  0  0
 10 14  1  0  0  0  0
 11 18  1  0  0  0  0
 12 15  1  0  0  0  0
 12 20  1  0  0  0  0
 13 16  2  0  0  0  0
 13 21  1  0  0  0  0
 14 22  1  0  0  0  0
 14 23  1  0  0  0  0
 14 24  1  0  0  0  0
 15 17  2  0  0  0  0
 15 25  1  0  0  0  0
 16 17  1  0  0  0  0
 16 26  1  0  0  0  0
 18 27  1  0  0  0  0
 18 28  1  0  0  0  0
 18 29  1  0  0  0  0
M  END
