DB00264
 OpenBabel07062211533D

 44 44  0  0  1  0  0  0  0  0999 V2000
    1.2871   -2.1863    0.5734 O   0  0  0  0  0  0  0  0  0  0  0  0
    4.0419   -2.5635    0.6073 O   0  0  0  0  0  0  0  0  0  0  0  0
   -4.0622    1.1630    0.4093 O   0  0  0  0  0  0  0  0  0  0  0  0
    2.8711    0.7125   -0.6608 N   0  0  0  0  0  0  0  0  0  0  0  0
    3.4466   -1.6768   -0.3445 C   0  0  2  0  0  0  0  0  0  0  0  0
    3.4934   -0.2586    0.2288 C   0  0  0  0  0  0  0  0  0  0  0  0
    2.8787    2.0425   -0.0670 C   0  0  0  0  0  0  0  0  0  0  0  0
    2.0297   -2.1626   -0.6417 C   0  0  0  0  0  0  0  0  0  0  0  0
    2.1184    2.0355    1.2562 C   0  0  0  0  0  0  0  0  0  0  0  0
    2.2660    3.0392   -1.0457 C   0  0  0  0  0  0  0  0  0  0  0  0
   -0.0588   -1.9547    0.4765 C   0  0  0  0  0  0  0  0  0  0  0  0
   -2.7928   -1.4831    0.2769 C   0  0  0  0  0  0  0  0  0  0  0  0
   -4.2587   -1.2308    0.1707 C   0  0  0  0  0  0  0  0  0  0  0  0
   -0.7390   -2.3219   -0.6796 C   0  0  0  0  0  0  0  0  0  0  0  0
   -0.7335   -1.3538    1.5339 C   0  0  0  0  0  0  0  0  0  0  0  0
   -2.1102   -2.0853   -0.7797 C   0  0  0  0  0  0  0  0  0  0  0  0
   -2.1045   -1.1173    1.4339 C   0  0  0  0  0  0  0  0  0  0  0  0
   -4.5877    0.1404   -0.4273 C   0  0  0  0  0  0  0  0  0  0  0  0
   -4.3427    2.4559   -0.1093 C   0  0  0  0  0  0  0  0  0  0  0  0
    4.0419   -1.7308   -1.2639 H   0  0  0  0  0  0  0  0  0  0  0  0
    3.0102   -0.3012    1.2102 H   0  0  0  0  0  0  0  0  0  0  0  0
    4.5403    0.0132    0.4172 H   0  0  0  0  0  0  0  0  0  0  0  0
    3.9121    2.3610    0.1211 H   0  0  0  0  0  0  0  0  0  0  0  0
    3.3625    0.7246   -1.5540 H   0  0  0  0  0  0  0  0  0  0  0  0
    2.0721   -3.1880   -1.0279 H   0  0  0  0  0  0  0  0  0  0  0  0
    1.5834   -1.5092   -1.4012 H   0  0  0  0  0  0  0  0  0  0  0  0
    2.6848    1.5620    2.0642 H   0  0  0  0  0  0  0  0  0  0  0  0
    1.1467    1.5363    1.1662 H   0  0  0  0  0  0  0  0  0  0  0  0
    1.9233    3.0626    1.5870 H   0  0  0  0  0  0  0  0  0  0  0  0
    1.2231    2.7896   -1.2721 H   0  0  0  0  0  0  0  0  0  0  0  0
    2.2861    4.0529   -0.6310 H   0  0  0  0  0  0  0  0  0  0  0  0
    2.8221    3.0581   -1.9896 H   0  0  0  0  0  0  0  0  0  0  0  0
   -4.7303   -2.0150   -0.4344 H   0  0  0  0  0  0  0  0  0  0  0  0
   -4.7080   -1.3080    1.1695 H   0  0  0  0  0  0  0  0  0  0  0  0
    4.9571   -2.2676    0.7504 H   0  0  0  0  0  0  0  0  0  0  0  0
   -2.6364   -2.3794   -1.6841 H   0  0  0  0  0  0  0  0  0  0  0  0
   -2.6236   -0.6474    2.2651 H   0  0  0  0  0  0  0  0  0  0  0  0
   -0.2524   -2.8213   -1.5118 H   0  0  0  0  0  0  0  0  0  0  0  0
   -0.2007   -1.0660    2.4358 H   0  0  0  0  0  0  0  0  0  0  0  0
   -4.1572    0.2298   -1.4321 H   0  0  0  0  0  0  0  0  0  0  0  0
   -5.6758    0.2509   -0.4999 H   0  0  0  0  0  0  0  0  0  0  0  0
   -5.4231    2.6172   -0.1750 H   0  0  0  0  0  0  0  0  0  0  0  0
   -3.9197    3.1989    0.5721 H   0  0  0  0  0  0  0  0  0  0  0  0
   -3.8815    2.5827   -1.0935 H   0  0  0  0  0  0  0  0  0  0  0  0
  1  8  1  0  0  0  0
  1 11  1  0  0  0  0
  2  5  1  0  0  0  0
  2 35  1  0  0  0  0
  3 18  1  0  0  0  0
  3 19  1  0  0  0  0
  4  6  1  0  0  0  0
  4  7  1  0  0  0  0
  4 24  1  0  0  0  0
  5  6  1  0  0  0  0
  5  8  1  0  0  0  0
  5 20  1  6  0  0  0
  6 21  1  0  0  0  0
  6 22  1  0  0  0  0
  7  9  1  0  0  0  0
  7 10  1  0  0  0  0
  7 23  1  0  0  0  0
  8 25  1  0  0  0  0
  8 26  1  0  0  0  0
  9 27  1  0  0  0  0
  9 28  1  0  0  0  0
  9 29  1  0  0  0  0
 10 30  1  0  0  0  0
 10 31  1  0  0  0  0
 10 32  1  0  0  0  0
 11 14  2  0  0  0  0
 11 15  1  0  0  0  0
 12 13  1  0  0  0  0
 12 16  2  0  0  0  0
 12 17  1  0  0  0  0
 13 18  1  0  0  0  0
 13 33  1  0  0  0  0
 13 34  1  0  0  0  0
 14 16  1  0  0  0  0
 14 38  1  0  0  0  0
 15 17  2  0  0  0  0
 15 39  1  0  0  0  0
 16 36  1  0  0  0  0
 17 37  1  0  0  0  0
 18 40  1  0  0  0  0
 18 41  1  0  0  0  0
 19 42  1  0  0  0  0
 19 43  1  0  0  0  0
 19 44  1  0  0  0  0
M  END
