DB00961
 OpenBabel07062211533D

 40 41  0  0  1  0  0  0  0  0999 V2000
   -0.0471    0.2837    1.7266 O   0  0  0  0  0  0  0  0  0  0  0  0
   -2.4391    0.8852    0.6512 N   0  0  0  0  0  0  0  0  0  0  0  0
    0.8462   -0.0794   -0.4198 N   0  0  0  0  0  0  0  0  0  0  0  0
   -1.5153    0.0350   -0.1224 C   0  0  2  0  0  0  0  0  0  0  0  0
   -1.9523   -1.4363   -0.1220 C   0  0  0  0  0  0  0  0  0  0  0  0
   -3.3852   -1.5972   -0.6104 C   0  0  0  0  0  0  0  0  0  0  0  0
   -4.3113   -0.6873    0.1834 C   0  0  0  0  0  0  0  0  0  0  0  0
   -3.8192    0.7587    0.1492 C   0  0  0  0  0  0  0  0  0  0  0  0
   -0.1618    0.0958    0.5198 C   0  0  0  0  0  0  0  0  0  0  0  0
   -2.0464    2.2997    0.6131 C   0  0  0  0  0  0  0  0  0  0  0  0
    2.2432   -0.0845   -0.1933 C   0  0  0  0  0  0  0  0  0  0  0  0
    2.9503    1.1064   -0.2688 C   0  0  0  0  0  0  0  0  0  0  0  0
    2.8817   -1.2804    0.0996 C   0  0  0  0  0  0  0  0  0  0  0  0
    4.3273    1.1012   -0.0467 C   0  0  0  0  0  0  0  0  0  0  0  0
    4.2588   -1.2854    0.3218 C   0  0  0  0  0  0  0  0  0  0  0  0
    2.2779    2.4034   -0.5841 C   0  0  0  0  0  0  0  0  0  0  0  0
    2.1352   -2.5722    0.1850 C   0  0  0  0  0  0  0  0  0  0  0  0
    4.9815   -0.0946    0.2487 C   0  0  0  0  0  0  0  0  0  0  0  0
   -1.4622    0.3972   -1.1585 H   0  0  0  0  0  0  0  0  0  0  0  0
   -1.8668   -1.8579    0.8891 H   0  0  0  0  0  0  0  0  0  0  0  0
   -1.2847   -2.0310   -0.7578 H   0  0  0  0  0  0  0  0  0  0  0  0
   -3.7031   -2.6405   -0.5078 H   0  0  0  0  0  0  0  0  0  0  0  0
   -3.4422   -1.3446   -1.6762 H   0  0  0  0  0  0  0  0  0  0  0  0
   -5.3255   -0.7428   -0.2280 H   0  0  0  0  0  0  0  0  0  0  0  0
   -4.3676   -1.0341    1.2231 H   0  0  0  0  0  0  0  0  0  0  0  0
   -3.8950    1.1442   -0.8764 H   0  0  0  0  0  0  0  0  0  0  0  0
   -4.4940    1.3592    0.7720 H   0  0  0  0  0  0  0  0  0  0  0  0
   -2.0180    2.6886   -0.4116 H   0  0  0  0  0  0  0  0  0  0  0  0
   -1.0686    2.4755    1.0711 H   0  0  0  0  0  0  0  0  0  0  0  0
   -2.7563    2.9067    1.1873 H   0  0  0  0  0  0  0  0  0  0  0  0
    0.5771   -0.3823   -1.3534 H   0  0  0  0  0  0  0  0  0  0  0  0
    4.9057    2.0198   -0.0988 H   0  0  0  0  0  0  0  0  0  0  0  0
    4.7848   -2.2078    0.5540 H   0  0  0  0  0  0  0  0  0  0  0  0
    1.5959    2.6853    0.2247 H   0  0  0  0  0  0  0  0  0  0  0  0
    3.0002    3.2181   -0.7054 H   0  0  0  0  0  0  0  0  0  0  0  0
    1.7166    2.3297   -1.5216 H   0  0  0  0  0  0  0  0  0  0  0  0
    1.4252   -2.5486    1.0182 H   0  0  0  0  0  0  0  0  0  0  0  0
    1.5932   -2.7663   -0.7467 H   0  0  0  0  0  0  0  0  0  0  0  0
    2.8070   -3.4216    0.3497 H   0  0  0  0  0  0  0  0  0  0  0  0
    6.0538   -0.0985    0.4221 H   0  0  0  0  0  0  0  0  0  0  0  0
  1  9  2  0  0  0  0
  2  4  1  0  0  0  0
  2  8  1  0  0  0  0
  2 10  1  0  0  0  0
  3  9  1  0  0  0  0
  3 11  1  0  0  0  0
  3 31  1  0  0  0  0
  4  5  1  0  0  0  0
  4  9  1  0  0  0  0
  4 19  1  6  0  0  0
  5  6  1  0  0  0  0
  5 20  1  0  0  0  0
  5 21  1  0  0  0  0
  6  7  1  0  0  0  0
  6 22  1  0  0  0  0
  6 23  1  0  0  0  0
  7  8  1  0  0  0  0
  7 24  1  0  0  0  0
  7 25  1  0  0  0  0
  8 26  1  0  0  0  0
  8 27  1  0  0  0  0
 10 28  1  0  0  0  0
 10 29  1  0  0  0  0
 10 30  1  0  0  0  0
 11 12  2  0  0  0  0
 11 13  1  0  0  0  0
 12 14  1  0  0  0  0
 12 16  1  0  0  0  0
 13 15  2  0  0  0  0
 13 17  1  0  0  0  0
 14 18  2  0  0  0  0
 14 32  1  0  0  0  0
 15 18  1  0  0  0  0
 15 33  1  0  0  0  0
 16 34  1  0  0  0  0
 16 35  1  0  0  0  0
 16 36  1  0  0  0  0
 17 37  1  0  0  0  0
 17 38  1  0  0  0  0
 17 39  1  0  0  0  0
 18 40  1  0  0  0  0
M  END
