DB00613
 OpenBabel07062211533D

 47 49  0  0  0  0  0  0  0  0999 V2000
   -7.7356   -1.2303   -1.5215 Cl  0  0  0  0  0  0  0  0  0  0  0  0
    3.4605    3.1932   -0.0973 O   0  0  0  0  0  0  0  0  0  0  0  0
    2.7033   -0.8066   -0.2917 N   0  0  0  0  0  0  0  0  0  0  0  0
   -1.8281    1.5274    0.3467 N   0  0  0  0  0  0  0  0  0  0  0  0
   -3.5151   -2.2394    1.1084 N   0  0  0  0  0  0  0  0  0  0  0  0
    2.8282    0.5226   -0.8906 C   0  0  0  0  0  0  0  0  0  0  0  0
    1.8072    1.4785   -0.3677 C   0  0  0  0  0  0  0  0  0  0  0  0
    2.8734   -0.7311    1.1585 C   0  0  0  0  0  0  0  0  0  0  0  0
    3.6822   -1.7230   -0.8749 C   0  0  0  0  0  0  0  0  0  0  0  0
    0.4803    1.0643   -0.2530 C   0  0  0  0  0  0  0  0  0  0  0  0
   -0.4904    1.9430    0.2351 C   0  0  0  0  0  0  0  0  0  0  0  0
    2.1684    2.7731    0.0052 C   0  0  0  0  0  0  0  0  0  0  0  0
    2.7468   -2.1033    1.7983 C   0  0  0  0  0  0  0  0  0  0  0  0
    3.4808   -1.8598   -2.3746 C   0  0  0  0  0  0  0  0  0  0  0  0
   -0.1244    3.2392    0.6077 C   0  0  0  0  0  0  0  0  0  0  0  0
   -2.4198    0.2647    0.5874 C   0  0  0  0  0  0  0  0  0  0  0  0
    1.2026    3.6535    0.4930 C   0  0  0  0  0  0  0  0  0  0  0  0
   -3.6819   -0.0678    0.0770 C   0  0  0  0  0  0  0  0  0  0  0  0
   -4.1987   -1.3482    0.3659 C   0  0  0  0  0  0  0  0  0  0  0  0
   -1.7130   -0.6516    1.3530 C   0  0  0  0  0  0  0  0  0  0  0  0
   -4.4228    0.8374   -0.7015 C   0  0  0  0  0  0  0  0  0  0  0  0
   -5.4525   -1.6780   -0.1415 C   0  0  0  0  0  0  0  0  0  0  0  0
   -2.3004   -1.8792    1.5822 C   0  0  0  0  0  0  0  0  0  0  0  0
   -5.6742    0.4813   -1.1960 C   0  0  0  0  0  0  0  0  0  0  0  0
   -6.1893   -0.7782   -0.9155 C   0  0  0  0  0  0  0  0  0  0  0  0
    2.6543    0.4932   -1.9722 H   0  0  0  0  0  0  0  0  0  0  0  0
    3.8477    0.9014   -0.7453 H   0  0  0  0  0  0  0  0  0  0  0  0
    3.8441   -0.2956    1.4297 H   0  0  0  0  0  0  0  0  0  0  0  0
    2.1026   -0.1066    1.6219 H   0  0  0  0  0  0  0  0  0  0  0  0
    4.7137   -1.4131   -0.6650 H   0  0  0  0  0  0  0  0  0  0  0  0
    3.5548   -2.7346   -0.4766 H   0  0  0  0  0  0  0  0  0  0  0  0
    0.1967    0.0680   -0.5839 H   0  0  0  0  0  0  0  0  0  0  0  0
    1.8618   -2.6399    1.4390 H   0  0  0  0  0  0  0  0  0  0  0  0
    3.6334   -2.7251    1.6410 H   0  0  0  0  0  0  0  0  0  0  0  0
    2.6381   -1.9906    2.8832 H   0  0  0  0  0  0  0  0  0  0  0  0
    2.4299   -2.0346   -2.6297 H   0  0  0  0  0  0  0  0  0  0  0  0
    3.8416   -0.9871   -2.9273 H   0  0  0  0  0  0  0  0  0  0  0  0
    4.0524   -2.7189   -2.7441 H   0  0  0  0  0  0  0  0  0  0  0  0
   -2.4901    2.2973    0.3580 H   0  0  0  0  0  0  0  0  0  0  0  0
   -0.8669    3.9355    0.9897 H   0  0  0  0  0  0  0  0  0  0  0  0
    1.4700    4.6646    0.7879 H   0  0  0  0  0  0  0  0  0  0  0  0
   -0.7454   -0.4344    1.7910 H   0  0  0  0  0  0  0  0  0  0  0  0
   -4.0500    1.8274   -0.9500 H   0  0  0  0  0  0  0  0  0  0  0  0
   -5.8658   -2.6631    0.0725 H   0  0  0  0  0  0  0  0  0  0  0  0
    3.5199    4.1149    0.2074 H   0  0  0  0  0  0  0  0  0  0  0  0
   -1.7976   -2.6336    2.1785 H   0  0  0  0  0  0  0  0  0  0  0  0
   -6.2324    1.1933   -1.7980 H   0  0  0  0  0  0  0  0  0  0  0  0
  1 25  1  0  0  0  0
  2 12  1  0  0  0  0
  2 45  1  0  0  0  0
  3  6  1  0  0  0  0
  3  8  1  0  0  0  0
  3  9  1  0  0  0  0
  4 11  1  0  0  0  0
  4 16  1  0  0  0  0
  4 39  1  0  0  0  0
  5 19  2  0  0  0  0
  5 23  1  0  0  0  0
  6  7  1  0  0  0  0
  6 26  1  0  0  0  0
  6 27  1  0  0  0  0
  7 10  2  0  0  0  0
  7 12  1  0  0  0  0
  8 13  1  0  0  0  0
  8 28  1  0  0  0  0
  8 29  1  0  0  0  0
  9 14  1  0  0  0  0
  9 30  1  0  0  0  0
  9 31  1  0  0  0  0
 10 11  1  0  0  0  0
 10 32  1  0  0  0  0
 11 15  2  0  0  0  0
 12 17  2  0  0  0  0
 13 33  1  0  0  0  0
 13 34  1  0  0  0  0
 13 35  1  0  0  0  0
 14 36  1  0  0  0  0
 14 37  1  0  0  0  0
 14 38  1  0  0  0  0
 15 17  1  0  0  0  0
 15 40  1  0  0  0  0
 16 18  2  0  0  0  0
 16 20  1  0  0  0  0
 17 41  1  0  0  0  0
 18 19  1  0  0  0  0
 18 21  1  0  0  0  0
 19 22  1  0  0  0  0
 20 23  2  0  0  0  0
 20 42  1  0  0  0  0
 21 24  2  0  0  0  0
 21 43  1  0  0  0  0
 22 25  2  0  0  0  0
 22 44  1  0  0  0  0
 23 46  1  0  0  0  0
 24 25  1  0  0  0  0
 24 47  1  0  0  0  0
M  END
