DB00737
 OpenBabel07062211533D

 55 58  0  0  1  0  0  0  0  0999 V2000
   -6.7983    3.6917   -0.1096 Cl  0  0  0  0  0  0  0  0  0  0  0  0
   -1.0500    0.2558   -0.1865 N   0  0  0  0  0  0  0  0  0  0  0  0
    1.6684    1.2255   -0.3567 N   0  0  0  0  0  0  0  0  0  0  0  0
    0.0902   -0.6115    0.1343 C   0  0  0  0  0  0  0  0  0  0  0  0
   -0.7221    1.6584    0.0968 C   0  0  0  0  0  0  0  0  0  0  0  0
    1.3400   -0.1773   -0.6391 C   0  0  0  0  0  0  0  0  0  0  0  0
    0.5281    2.0934   -0.6755 C   0  0  0  0  0  0  0  0  0  0  0  0
   -2.2412   -0.1583    0.5520 C   0  0  1  0  0  0  0  0  0  0  0  0
    2.8587    1.6392   -1.0972 C   0  0  0  0  0  0  0  0  0  0  0  0
   -3.3958    0.8183    0.3839 C   0  0  0  0  0  0  0  0  0  0  0  0
   -2.6559   -1.5865    0.2304 C   0  0  0  0  0  0  0  0  0  0  0  0
    4.0615    0.8095   -0.7343 C   0  0  0  0  0  0  0  0  0  0  0  0
   -3.5201    1.8648    1.2749 C   0  0  0  0  0  0  0  0  0  0  0  0
   -4.2851    0.6279   -0.6543 C   0  0  0  0  0  0  0  0  0  0  0  0
   -3.2939   -2.3309    1.2018 C   0  0  0  0  0  0  0  0  0  0  0  0
   -2.3820   -2.0948   -1.0231 C   0  0  0  0  0  0  0  0  0  0  0  0
    4.3269    0.5371    0.6005 C   0  0  0  0  0  0  0  0  0  0  0  0
    4.8887    0.3295   -1.7401 C   0  0  0  0  0  0  0  0  0  0  0  0
   -4.5793    2.7594    1.1213 C   0  0  0  0  0  0  0  0  0  0  0  0
   -5.3443    1.5225   -0.8080 C   0  0  0  0  0  0  0  0  0  0  0  0
   -3.6743   -3.6401    0.9071 C   0  0  0  0  0  0  0  0  0  0  0  0
   -2.7624   -3.4041   -1.3178 C   0  0  0  0  0  0  0  0  0  0  0  0
    5.4420   -0.2308    0.9361 C   0  0  0  0  0  0  0  0  0  0  0  0
   -5.4913    2.5884    0.0798 C   0  0  0  0  0  0  0  0  0  0  0  0
   -3.4087   -4.1767   -0.3526 C   0  0  0  0  0  0  0  0  0  0  0  0
    6.0037   -0.4387   -1.4044 C   0  0  0  0  0  0  0  0  0  0  0  0
    6.2804   -0.7187   -0.0663 C   0  0  0  0  0  0  0  0  0  0  0  0
    5.7386   -0.5297    2.3671 C   0  0  0  0  0  0  0  0  0  0  0  0
   -0.0759   -1.6631   -0.1139 H   0  0  0  0  0  0  0  0  0  0  0  0
    0.3082   -0.5778    1.2114 H   0  0  0  0  0  0  0  0  0  0  0  0
   -0.5595    1.8249    1.1702 H   0  0  0  0  0  0  0  0  0  0  0  0
   -1.5060    2.3385   -0.2502 H   0  0  0  0  0  0  0  0  0  0  0  0
    1.1743   -0.3303   -1.7149 H   0  0  0  0  0  0  0  0  0  0  0  0
    2.1444   -0.8571   -0.3389 H   0  0  0  0  0  0  0  0  0  0  0  0
    0.7625    3.1286   -0.3988 H   0  0  0  0  0  0  0  0  0  0  0  0
    0.3178    2.0831   -1.7539 H   0  0  0  0  0  0  0  0  0  0  0  0
   -1.9830   -0.1592    1.6240 H   0  0  0  0  0  0  0  0  0  0  0  0
    3.1020    2.6838   -0.8629 H   0  0  0  0  0  0  0  0  0  0  0  0
    2.6734    1.5902   -2.1787 H   0  0  0  0  0  0  0  0  0  0  0  0
   -2.8268    2.0028    2.0990 H   0  0  0  0  0  0  0  0  0  0  0  0
   -4.1962   -0.1704   -1.3812 H   0  0  0  0  0  0  0  0  0  0  0  0
   -3.5065   -1.9212    2.1847 H   0  0  0  0  0  0  0  0  0  0  0  0
   -1.9073   -1.5135   -1.8076 H   0  0  0  0  0  0  0  0  0  0  0  0
    3.6867    0.9236    1.3896 H   0  0  0  0  0  0  0  0  0  0  0  0
    4.6850    0.5414   -2.7858 H   0  0  0  0  0  0  0  0  0  0  0  0
   -4.6831    3.5834    1.8226 H   0  0  0  0  0  0  0  0  0  0  0  0
   -6.0446    1.3803   -1.6272 H   0  0  0  0  0  0  0  0  0  0  0  0
   -4.1782   -4.2415    1.6582 H   0  0  0  0  0  0  0  0  0  0  0  0
   -2.5619   -3.8200   -2.3008 H   0  0  0  0  0  0  0  0  0  0  0  0
   -3.7065   -5.1955   -0.5828 H   0  0  0  0  0  0  0  0  0  0  0  0
    6.6562   -0.8187   -2.1850 H   0  0  0  0  0  0  0  0  0  0  0  0
    7.1512   -1.3197    0.1818 H   0  0  0  0  0  0  0  0  0  0  0  0
    5.1775   -1.4121    2.6904 H   0  0  0  0  0  0  0  0  0  0  0  0
    6.8064   -0.7194    2.5214 H   0  0  0  0  0  0  0  0  0  0  0  0
    5.4676    0.3157    3.0087 H   0  0  0  0  0  0  0  0  0  0  0  0
  1 24  1  0  0  0  0
  2  4  1  0  0  0  0
  2  5  1  0  0  0  0
  2  8  1  0  0  0  0
  3  6  1  0  0  0  0
  3  7  1  0  0  0  0
  3  9  1  0  0  0  0
  4  6  1  0  0  0  0
  4 29  1  0  0  0  0
  4 30  1  0  0  0  0
  5  7  1  0  0  0  0
  5 31  1  0  0  0  0
  5 32  1  0  0  0  0
  6 33  1  0  0  0  0
  6 34  1  0  0  0  0
  7 35  1  0  0  0  0
  7 36  1  0  0  0  0
  8 10  1  0  0  0  0
  8 11  1  0  0  0  0
  8 37  1  1  0  0  0
  9 12  1  0  0  0  0
  9 38  1  0  0  0  0
  9 39  1  0  0  0  0
 10 13  2  0  0  0  0
 10 14  1  0  0  0  0
 11 15  2  0  0  0  0
 11 16  1  0  0  0  0
 12 17  2  0  0  0  0
 12 18  1  0  0  0  0
 13 19  1  0  0  0  0
 13 40  1  0  0  0  0
 14 20  2  0  0  0  0
 14 41  1  0  0  0  0
 15 21  1  0  0  0  0
 15 42  1  0  0  0  0
 16 22  2  0  0  0  0
 16 43  1  0  0  0  0
 17 23  1  0  0  0  0
 17 44  1  0  0  0  0
 18 26  2  0  0  0  0
 18 45  1  0  0  0  0
 19 24  2  0  0  0  0
 19 46  1  0  0  0  0
 20 24  1  0  0  0  0
 20 47  1  0  0  0  0
 21 25  2  0  0  0  0
 21 48  1  0  0  0  0
 22 25  1  0  0  0  0
 22 49  1  0  0  0  0
 23 27  2  0  0  0  0
 23 28  1  0  0  0  0
 25 50  1  0  0  0  0
 26 27  1  0  0  0  0
 26 51  1  0  0  0  0
 27 52  1  0  0  0  0
 28 53  1  0  0  0  0
 28 54  1  0  0  0  0
 28 55  1  0  0  0  0
M  END
