DB00438
 OpenBabel07062211533D

 59 62  0  0  1  0  0  0  0  0999 V2000
    0.8645   -1.3402   -1.0354 S   0  0  0  0  0  0  0  0  0  0  0  0
   -6.5865   -3.1479   -1.3823 S   0  0  0  0  0  0  0  0  0  0  0  0
   -0.3158    0.6252    3.0088 O   0  0  0  0  0  0  0  0  0  0  0  0
    2.7828    1.3029    3.1194 O   0  0  0  0  0  0  0  0  0  0  0  0
    2.4663    2.8813    1.4950 O   0  0  0  0  0  0  0  0  0  0  0  0
   -3.1977   -0.6210    2.3700 O   0  0  0  0  0  0  0  0  0  0  0  0
   -3.2544    1.5566    0.1662 O   0  0  0  0  0  0  0  0  0  0  0  0
   -5.2508    3.3031    1.1049 O   0  0  0  0  0  0  0  0  0  0  0  0
   -5.7283    3.3441   -1.1247 O   0  0  0  0  0  0  0  0  0  0  0  0
    1.1388   -0.1962    1.3447 N   0  0  0  0  0  0  0  0  0  0  0  0
   -1.6937   -1.1507    0.6475 N   0  0  0  0  0  0  0  0  0  0  0  0
    5.3877    0.1427   -0.6034 N   0  3  0  0  0  0  0  0  0  0  0  0
   -4.1533    0.6191   -0.3612 N   0  0  0  0  0  0  0  0  0  0  0  0
   -4.6440   -2.9528    0.3121 N   0  0  0  0  0  0  0  0  0  0  0  0
   -5.6037   -5.1053    0.1270 N   0  0  0  0  0  0  0  0  0  0  0  0
    0.8663   -1.4989    0.7648 C   0  0  1  0  0  0  0  0  0  0  0  0
   -0.5088   -1.4150    1.4628 C   0  0  1  0  0  0  0  0  0  0  0  0
    0.0622   -0.1468    2.1590 C   0  0  0  0  0  0  0  0  0  0  0  0
    2.2126    0.5669    1.0155 C   0  0  0  0  0  0  0  0  0  0  0  0
    2.9540    0.3061   -0.0874 C   0  0  0  0  0  0  0  0  0  0  0  0
    2.6011   -0.7822   -1.0988 C   0  0  0  0  0  0  0  0  0  0  0  0
    4.2061    1.0553   -0.4757 C   0  0  0  0  0  0  0  0  0  0  0  0
    2.4947    1.7275    1.8734 C   0  0  0  0  0  0  0  0  0  0  0  0
   -2.9106   -0.7816    1.1946 C   0  0  0  0  0  0  0  0  0  0  0  0
   -3.9797   -0.5589    0.1576 C   0  0  0  0  0  0  0  0  0  0  0  0
    5.8163   -0.1916   -1.8282 C   0  0  0  0  0  0  0  0  0  0  0  0
    5.9777   -0.3101    0.5115 C   0  0  0  0  0  0  0  0  0  0  0  0
   -4.8324   -1.7066   -0.2531 C   0  0  0  0  0  0  0  0  0  0  0  0
    6.9081   -1.0349   -1.9767 C   0  0  0  0  0  0  0  0  0  0  0  0
    7.0736   -1.1565    0.4236 C   0  0  0  0  0  0  0  0  0  0  0  0
    7.5404   -1.5203   -0.8360 C   0  0  0  0  0  0  0  0  0  0  0  0
   -3.5108    2.8088   -0.4505 C   0  0  0  0  0  0  0  0  0  0  0  0
   -5.8387   -1.6164   -1.1917 C   0  0  0  0  0  0  0  0  0  0  0  0
   -2.5960    3.8444    0.1967 C   0  0  0  0  0  0  0  0  0  0  0  0
   -3.2091    2.6822   -1.9393 C   0  0  0  0  0  0  0  0  0  0  0  0
   -5.5130   -3.7910   -0.2081 C   0  0  0  0  0  0  0  0  0  0  0  0
   -4.9723    3.1878   -0.1220 C   0  0  0  0  0  0  0  0  0  0  0  0
    1.5182   -2.2867    1.1607 H   0  0  0  0  0  0  0  0  0  0  0  0
   -0.6853   -2.2407    2.1624 H   0  0  0  0  0  0  0  0  0  0  0  0
    2.7586   -0.4106   -2.1165 H   0  0  0  0  0  0  0  0  0  0  0  0
    3.2493   -1.6521   -0.9493 H   0  0  0  0  0  0  0  0  0  0  0  0
   -1.6367   -1.2374   -0.3646 H   0  0  0  0  0  0  0  0  0  0  0  0
    4.5059    1.8187    0.2504 H   0  0  0  0  0  0  0  0  0  0  0  0
    4.0617    1.5729   -1.4312 H   0  0  0  0  0  0  0  0  0  0  0  0
    5.2834    0.2159   -2.6785 H   0  0  0  0  0  0  0  0  0  0  0  0
    5.5669    0.0119    1.4606 H   0  0  0  0  0  0  0  0  0  0  0  0
    2.9786    2.0475    3.7272 H   0  0  0  0  0  0  0  0  0  0  0  0
    7.2620   -1.3113   -2.9642 H   0  0  0  0  0  0  0  0  0  0  0  0
    7.5578   -1.5277    1.3205 H   0  0  0  0  0  0  0  0  0  0  0  0
    8.3966   -2.1819   -0.9285 H   0  0  0  0  0  0  0  0  0  0  0  0
   -6.1685   -0.7587   -1.7612 H   0  0  0  0  0  0  0  0  0  0  0  0
   -2.7950    4.8522   -0.1831 H   0  0  0  0  0  0  0  0  0  0  0  0
   -3.8978    2.0022   -2.4535 H   0  0  0  0  0  0  0  0  0  0  0  0
   -3.2781    3.6535   -2.4420 H   0  0  0  0  0  0  0  0  0  0  0  0
   -2.2005    2.2835   -2.1005 H   0  0  0  0  0  0  0  0  0  0  0  0
   -2.7087    3.8598    1.2870 H   0  0  0  0  0  0  0  0  0  0  0  0
   -1.5434    3.6039    0.0064 H   0  0  0  0  0  0  0  0  0  0  0  0
   -4.9884   -5.5247    0.8163 H   0  0  0  0  0  0  0  0  0  0  0  0
   -6.2901   -5.7195   -0.2989 H   0  0  0  0  0  0  0  0  0  0  0  0
  1 16  1  0  0  0  0
  1 21  1  0  0  0  0
  2 33  1  0  0  0  0
  2 36  1  0  0  0  0
  3 18  2  0  0  0  0
  4 23  1  0  0  0  0
  4 47  1  0  0  0  0
  5 23  2  0  0  0  0
  6 24  2  0  0  0  0
  7 13  1  0  0  0  0
  7 32  1  0  0  0  0
  8 37  2  0  0  0  0
  9 37  1  0  0  0  0
 10 16  1  0  0  0  0
 10 18  1  0  0  0  0
 10 19  1  0  0  0  0
 11 17  1  0  0  0  0
 11 24  1  0  0  0  0
 11 42  1  0  0  0  0
 12 22  1  0  0  0  0
 12 26  2  0  0  0  0
 12 27  1  0  0  0  0
 13 25  2  0  0  0  0
 14 28  1  0  0  0  0
 14 36  2  0  0  0  0
 15 36  1  0  0  0  0
 15 58  1  0  0  0  0
 15 59  1  0  0  0  0
 16 17  1  1  0  0  0
 16 38  1  0  0  0  0
 17 18  1  0  0  0  0
 17 39  1  1  0  0  0
 19 20  2  0  0  0  0
 19 23  1  0  0  0  0
 20 21  1  0  0  0  0
 20 22  1  0  0  0  0
 21 40  1  0  0  0  0
 21 41  1  0  0  0  0
 22 43  1  0  0  0  0
 22 44  1  0  0  0  0
 24 25  1  0  0  0  0
 25 28  1  0  0  0  0
 26 29  1  0  0  0  0
 26 45  1  0  0  0  0
 27 30  2  0  0  0  0
 27 46  1  0  0  0  0
 28 33  2  0  0  0  0
 29 31  2  0  0  0  0
 29 48  1  0  0  0  0
 30 31  1  0  0  0  0
 30 49  1  0  0  0  0
 31 50  1  0  0  0  0
 32 34  1  0  0  0  0
 32 35  1  0  0  0  0
 32 37  1  0  0  0  0
 33 51  1  0  0  0  0
 34 52  1  0  0  0  0
 34 56  1  0  0  0  0
 34 57  1  0  0  0  0
 35 53  1  0  0  0  0
 35 54  1  0  0  0  0
 35 55  1  0  0  0  0
M  CHG  1  12   1
M  END
