DB00655
 OpenBabel07062211533D

 42 45  0  0  1  0  0  0  0  0999 V2000
    4.6631   -1.3916    0.4345 O   0  0  0  0  0  0  0  0  0  0  0  0
   -6.0984   -0.1549   -0.4021 O   0  0  0  0  0  0  0  0  0  0  0  0
    1.7587    0.5145    0.3943 C   0  0  2  0  0  0  0  0  0  0  0  0
    2.3888   -0.7754   -0.1716 C   0  0  2  0  0  0  0  0  0  0  0  0
    0.2933    0.6413   -0.0187 C   0  0  1  0  0  0  0  0  0  0  0  0
   -0.4923   -0.5576    0.5981 C   0  0  2  0  0  0  0  0  0  0  0  0
    1.6855   -1.9626    0.4771 C   0  0  0  0  0  0  0  0  0  0  0  0
    2.7549    1.6083    0.0274 C   0  0  0  0  0  0  0  0  0  0  0  0
    0.1651   -1.9162    0.2290 C   0  0  0  0  0  0  0  0  0  0  0  0
   -0.3459    1.9485    0.4520 C   0  0  0  0  0  0  0  0  0  0  0  0
    3.8247   -0.5195    0.2493 C   0  0  0  0  0  0  0  0  0  0  0  0
    4.1058    0.9681    0.3810 C   0  0  0  0  0  0  0  0  0  0  0  0
    2.3990   -0.9074   -1.7061 C   0  0  0  0  0  0  0  0  0  0  0  0
   -1.9843   -0.4558    0.2937 C   0  0  0  0  0  0  0  0  0  0  0  0
   -1.7617    2.0631   -0.1057 C   0  0  0  0  0  0  0  0  0  0  0  0
   -2.5731    0.7953    0.0070 C   0  0  0  0  0  0  0  0  0  0  0  0
   -2.8228   -1.5816    0.3777 C   0  0  0  0  0  0  0  0  0  0  0  0
   -3.9555    0.8796   -0.2360 C   0  0  0  0  0  0  0  0  0  0  0  0
   -4.1959   -1.4824    0.1422 C   0  0  0  0  0  0  0  0  0  0  0  0
   -4.7619   -0.2529   -0.1690 C   0  0  0  0  0  0  0  0  0  0  0  0
    1.7745    0.4612    1.4969 H   0  0  0  0  0  0  0  0  0  0  0  0
    0.2153    0.6105   -1.1131 H   0  0  0  0  0  0  0  0  0  0  0  0
   -0.4212   -0.4715    1.6936 H   0  0  0  0  0  0  0  0  0  0  0  0
    1.8730   -1.9667    1.5590 H   0  0  0  0  0  0  0  0  0  0  0  0
    2.0916   -2.9088    0.0994 H   0  0  0  0  0  0  0  0  0  0  0  0
    2.5981    2.5296    0.5969 H   0  0  0  0  0  0  0  0  0  0  0  0
    2.7049    1.8617   -1.0370 H   0  0  0  0  0  0  0  0  0  0  0  0
   -0.0438   -2.1517   -0.8218 H   0  0  0  0  0  0  0  0  0  0  0  0
   -0.2820   -2.7252    0.8183 H   0  0  0  0  0  0  0  0  0  0  0  0
    0.2345    2.8166    0.1205 H   0  0  0  0  0  0  0  0  0  0  0  0
   -0.3723    1.9813    1.5487 H   0  0  0  0  0  0  0  0  0  0  0  0
    4.3850    1.1844    1.4162 H   0  0  0  0  0  0  0  0  0  0  0  0
    4.8924    1.2815   -0.3087 H   0  0  0  0  0  0  0  0  0  0  0  0
    1.3946   -0.9444   -2.1360 H   0  0  0  0  0  0  0  0  0  0  0  0
    2.9354   -0.0862   -2.1931 H   0  0  0  0  0  0  0  0  0  0  0  0
    2.9132   -1.8299   -2.0028 H   0  0  0  0  0  0  0  0  0  0  0  0
   -1.7055    2.3318   -1.1685 H   0  0  0  0  0  0  0  0  0  0  0  0
   -2.2766    2.8809    0.4130 H   0  0  0  0  0  0  0  0  0  0  0  0
   -2.4270   -2.5594    0.6355 H   0  0  0  0  0  0  0  0  0  0  0  0
   -4.3977    1.8441   -0.4778 H   0  0  0  0  0  0  0  0  0  0  0  0
   -4.8166   -2.3720    0.2084 H   0  0  0  0  0  0  0  0  0  0  0  0
   -6.3170    0.7716   -0.6017 H   0  0  0  0  0  0  0  0  0  0  0  0
  1 11  2  0  0  0  0
  2 20  1  0  0  0  0
  2 42  1  0  0  0  0
  3  4  1  6  0  0  0
  3  8  1  0  0  0  0
  3 21  1  0  0  0  0
  4  7  1  0  0  0  0
  4 11  1  0  0  0  0
  4 13  1  6  0  0  0
  5  3  1  1  0  0  0
  5 10  1  0  0  0  0
  5 22  1  0  0  0  0
  6  5  1  6  0  0  0
  6  9  1  0  0  0  0
  6 14  1  0  0  0  0
  6 23  1  0  0  0  0
  7  9  1  0  0  0  0
  7 24  1  0  0  0  0
  7 25  1  0  0  0  0
  8 12  1  0  0  0  0
  8 26  1  0  0  0  0
  8 27  1  0  0  0  0
  9 28  1  0  0  0  0
  9 29  1  0  0  0  0
 10 15  1  0  0  0  0
 10 30  1  0  0  0  0
 10 31  1  0  0  0  0
 11 12  1  0  0  0  0
 12 32  1  0  0  0  0
 12 33  1  0  0  0  0
 13 34  1  0  0  0  0
 13 35  1  0  0  0  0
 13 36  1  0  0  0  0
 14 16  2  0  0  0  0
 14 17  1  0  0  0  0
 15 16  1  0  0  0  0
 15 37  1  0  0  0  0
 15 38  1  0  0  0  0
 16 18  1  0  0  0  0
 17 19  2  0  0  0  0
 17 39  1  0  0  0  0
 18 20  2  0  0  0  0
 18 40  1  0  0  0  0
 19 20  1  0  0  0  0
 19 41  1  0  0  0  0
M  END
