DB00178
 OpenBabel07062211533D

 62 64  0  0  1  0  0  0  0  0999 V2000
    1.7480    2.8637    0.6573 O   0  0  0  0  0  0  0  0  0  0  0  0
    2.2378   -2.4945   -0.9872 O   0  0  0  0  0  0  0  0  0  0  0  0
    1.8775   -1.2625    0.8964 O   0  0  0  0  0  0  0  0  0  0  0  0
   -4.2852    1.8917    0.0429 O   0  0  0  0  0  0  0  0  0  0  0  0
   -2.8148    2.6257    1.6592 O   0  0  0  0  0  0  0  0  0  0  0  0
    2.7570    1.0034   -0.2767 N   0  0  0  0  0  0  0  0  0  0  0  0
   -0.6842    1.9372    0.1553 N   0  0  0  0  0  0  0  0  0  0  0  0
    5.0359    0.2881   -0.4301 C   0  0  2  0  0  0  0  0  0  0  0  0
    4.0994    1.3336    0.1930 C   0  0  2  0  0  0  0  0  0  0  0  0
    4.2087   -0.4189   -1.5007 C   0  0  0  0  0  0  0  0  0  0  0  0
    5.4979   -0.5929    0.7282 C   0  0  0  0  0  0  0  0  0  0  0  0
    4.2614    1.1982    1.7117 C   0  0  0  0  0  0  0  0  0  0  0  0
    2.7546   -0.2054   -1.0925 C   0  0  1  0  0  0  0  0  0  0  0  0
    5.5253    0.3707    1.9029 C   0  0  0  0  0  0  0  0  0  0  0  0
    1.6840    1.8524   -0.0451 C   0  0  0  0  0  0  0  0  0  0  0  0
    2.2418   -1.3463   -0.2670 C   0  0  0  0  0  0  0  0  0  0  0  0
    0.3857    1.4803   -0.7151 C   0  0  2  0  0  0  0  0  0  0  0  0
    0.2987    2.1386   -2.0774 C   0  0  0  0  0  0  0  0  0  0  0  0
   -1.9907    1.6121   -0.4039 C   0  0  1  0  0  0  0  0  0  0  0  0
   -2.1570    0.0990   -0.6177 C   0  0  0  0  0  0  0  0  0  0  0  0
   -3.0435    2.1082    0.5735 C   0  0  0  0  0  0  0  0  0  0  0  0
   -2.0637   -0.7571    0.6532 C   0  0  0  0  0  0  0  0  0  0  0  0
   -2.2929   -2.2280    0.4133 C   0  0  0  0  0  0  0  0  0  0  0  0
   -3.5797   -2.7390    0.4947 C   0  0  0  0  0  0  0  0  0  0  0  0
   -1.2135   -3.0458    0.1149 C   0  0  0  0  0  0  0  0  0  0  0  0
   -5.3858    2.3185    0.8522 C   0  0  0  0  0  0  0  0  0  0  0  0
   -3.7918   -4.0997    0.2726 C   0  0  0  0  0  0  0  0  0  0  0  0
   -1.4257   -4.4064   -0.1073 C   0  0  0  0  0  0  0  0  0  0  0  0
   -6.6789    2.0101    0.1282 C   0  0  0  0  0  0  0  0  0  0  0  0
   -2.7150   -4.9333   -0.0284 C   0  0  0  0  0  0  0  0  0  0  0  0
    5.9127    0.7747   -0.8750 H   0  0  0  0  0  0  0  0  0  0  0  0
    4.3462    2.3479   -0.1414 H   0  0  0  0  0  0  0  0  0  0  0  0
    4.3782    0.0914   -2.4578 H   0  0  0  0  0  0  0  0  0  0  0  0
    4.4984   -1.4656   -1.6348 H   0  0  0  0  0  0  0  0  0  0  0  0
    4.7947   -1.4092    0.9259 H   0  0  0  0  0  0  0  0  0  0  0  0
    6.4793   -1.0376    0.5379 H   0  0  0  0  0  0  0  0  0  0  0  0
    4.3478    2.1754    2.1978 H   0  0  0  0  0  0  0  0  0  0  0  0
    3.4056    0.6833    2.1638 H   0  0  0  0  0  0  0  0  0  0  0  0
    2.1102   -0.0908   -1.9684 H   0  0  0  0  0  0  0  0  0  0  0  0
    6.4109    1.0146    1.8451 H   0  0  0  0  0  0  0  0  0  0  0  0
    5.5407   -0.1463    2.8665 H   0  0  0  0  0  0  0  0  0  0  0  0
    0.3496    0.3974   -0.8084 H   0  0  0  0  0  0  0  0  0  0  0  0
   -0.6185    2.9480    0.2805 H   0  0  0  0  0  0  0  0  0  0  0  0
    1.2298    2.0065   -2.6406 H   0  0  0  0  0  0  0  0  0  0  0  0
   -0.5025    1.7182   -2.6933 H   0  0  0  0  0  0  0  0  0  0  0  0
    0.1412    3.2212   -1.9986 H   0  0  0  0  0  0  0  0  0  0  0  0
    1.9327   -3.2619   -0.4580 H   0  0  0  0  0  0  0  0  0  0  0  0
   -2.1690    2.1592   -1.3368 H   0  0  0  0  0  0  0  0  0  0  0  0
   -1.4738   -0.2828   -1.3849 H   0  0  0  0  0  0  0  0  0  0  0  0
   -3.1505   -0.0730   -1.0570 H   0  0  0  0  0  0  0  0  0  0  0  0
   -1.0811   -0.6263    1.1239 H   0  0  0  0  0  0  0  0  0  0  0  0
   -2.7889   -0.4112    1.4007 H   0  0  0  0  0  0  0  0  0  0  0  0
   -4.4251   -2.0971    0.7258 H   0  0  0  0  0  0  0  0  0  0  0  0
   -0.2124   -2.6439    0.0507 H   0  0  0  0  0  0  0  0  0  0  0  0
   -5.3101    3.3967    1.0324 H   0  0  0  0  0  0  0  0  0  0  0  0
   -5.3618    1.7865    1.8098 H   0  0  0  0  0  0  0  0  0  0  0  0
   -4.7957   -4.5098    0.3331 H   0  0  0  0  0  0  0  0  0  0  0  0
   -0.5871   -5.0553   -0.3423 H   0  0  0  0  0  0  0  0  0  0  0  0
   -7.5433    2.3233    0.7204 H   0  0  0  0  0  0  0  0  0  0  0  0
   -6.7097    2.5203   -0.8401 H   0  0  0  0  0  0  0  0  0  0  0  0
   -6.7597    0.9371   -0.0755 H   0  0  0  0  0  0  0  0  0  0  0  0
   -2.8801   -5.9925   -0.2018 H   0  0  0  0  0  0  0  0  0  0  0  0
  1 15  2  0  0  0  0
  2 16  1  0  0  0  0
  2 47  1  0  0  0  0
  3 16  2  0  0  0  0
  4 21  1  0  0  0  0
  4 26  1  0  0  0  0
  5 21  2  0  0  0  0
  6  9  1  0  0  0  0
  6 13  1  0  0  0  0
  6 15  1  0  0  0  0
  7 17  1  0  0  0  0
  7 19  1  0  0  0  0
  7 43  1  0  0  0  0
  8  9  1  1  0  0  0
  8 10  1  0  0  0  0
  8 11  1  0  0  0  0
  8 31  1  0  0  0  0
  9 12  1  0  0  0  0
  9 32  1  6  0  0  0
 10 13  1  0  0  0  0
 10 33  1  0  0  0  0
 10 34  1  0  0  0  0
 11 14  1  0  0  0  0
 11 35  1  0  0  0  0
 11 36  1  0  0  0  0
 12 14  1  0  0  0  0
 12 37  1  0  0  0  0
 12 38  1  0  0  0  0
 13 16  1  0  0  0  0
 13 39  1  6  0  0  0
 14 40  1  0  0  0  0
 14 41  1  0  0  0  0
 15 17  1  0  0  0  0
 17 18  1  0  0  0  0
 17 42  1  6  0  0  0
 18 44  1  0  0  0  0
 18 45  1  0  0  0  0
 18 46  1  0  0  0  0
 19 20  1  0  0  0  0
 19 21  1  0  0  0  0
 19 48  1  6  0  0  0
 20 22  1  0  0  0  0
 20 49  1  0  0  0  0
 20 50  1  0  0  0  0
 22 23  1  0  0  0  0
 22 51  1  0  0  0  0
 22 52  1  0  0  0  0
 23 24  2  0  0  0  0
 23 25  1  0  0  0  0
 24 27  1  0  0  0  0
 24 53  1  0  0  0  0
 25 28  2  0  0  0  0
 25 54  1  0  0  0  0
 26 29  1  0  0  0  0
 26 55  1  0  0  0  0
 26 56  1  0  0  0  0
 27 30  2  0  0  0  0
 27 57  1  0  0  0  0
 28 30  1  0  0  0  0
 28 58  1  0  0  0  0
 29 59  1  0  0  0  0
 29 60  1  0  0  0  0
 29 61  1  0  0  0  0
 30 62  1  0  0  0  0
M  END
