DB00968
 OpenBabel07062211533D

 28 28  0  0  1  0  0  0  0  0999 V2000
   -1.0805    1.4164    1.6826 O   0  0  0  0  0  0  0  0  0  0  0  0
   -2.2533    2.5202    0.0971 O   0  0  0  0  0  0  0  0  0  0  0  0
    3.2331    2.0922   -0.3865 O   0  0  0  0  0  0  0  0  0  0  0  0
    4.3809   -0.2797    0.4962 O   0  0  0  0  0  0  0  0  0  0  0  0
   -3.3793    0.1142   -0.7206 N   0  0  0  0  0  0  0  0  0  0  0  0
   -2.0423    0.0971   -0.1082 C   0  0  2  0  0  0  0  0  0  0  0  0
   -0.9971   -0.1985   -1.2111 C   0  0  0  0  0  0  0  0  0  0  0  0
    0.4446   -0.2170   -0.7541 C   0  0  0  0  0  0  0  0  0  0  0  0
   -2.0710   -1.0026    0.9648 C   0  0  0  0  0  0  0  0  0  0  0  0
   -1.8223    1.4639    0.5459 C   0  0  0  0  0  0  0  0  0  0  0  0
    1.1778    0.9569   -0.7824 C   0  0  0  0  0  0  0  0  0  0  0  0
    1.0004   -1.4075   -0.3178 C   0  0  0  0  0  0  0  0  0  0  0  0
    2.5076    0.9398   -0.3614 C   0  0  0  0  0  0  0  0  0  0  0  0
    2.3301   -1.4245    0.1031 C   0  0  0  0  0  0  0  0  0  0  0  0
    3.0836   -0.2509    0.0814 C   0  0  0  0  0  0  0  0  0  0  0  0
   -1.2233   -1.1591   -1.6962 H   0  0  0  0  0  0  0  0  0  0  0  0
   -1.0891    0.5501   -2.0119 H   0  0  0  0  0  0  0  0  0  0  0  0
   -2.2737   -1.9861    0.5239 H   0  0  0  0  0  0  0  0  0  0  0  0
   -2.8486   -0.8088    1.7147 H   0  0  0  0  0  0  0  0  0  0  0  0
   -1.1266   -1.0789    1.5135 H   0  0  0  0  0  0  0  0  0  0  0  0
   -4.0926    0.2291   -0.0011 H   0  0  0  0  0  0  0  0  0  0  0  0
   -3.5692   -0.7839   -1.1644 H   0  0  0  0  0  0  0  0  0  0  0  0
    0.7337    1.8864   -1.1281 H   0  0  0  0  0  0  0  0  0  0  0  0
    0.4237   -2.3275   -0.3004 H   0  0  0  0  0  0  0  0  0  0  0  0
    2.7666   -2.3592    0.4450 H   0  0  0  0  0  0  0  0  0  0  0  0
   -0.9496    2.3074    2.0712 H   0  0  0  0  0  0  0  0  0  0  0  0
    4.1294    1.8967   -0.0620 H   0  0  0  0  0  0  0  0  0  0  0  0
    4.6068   -1.1862    0.7668 H   0  0  0  0  0  0  0  0  0  0  0  0
  1 10  1  0  0  0  0
  1 26  1  0  0  0  0
  2 10  2  0  0  0  0
  3 13  1  0  0  0  0
  3 27  1  0  0  0  0
  4 15  1  0  0  0  0
  4 28  1  0  0  0  0
  5  6  1  0  0  0  0
  5 21  1  0  0  0  0
  5 22  1  0  0  0  0
  6  7  1  0  0  0  0
  6  9  1  0  0  0  0
  6 10  1  1  0  0  0
  7  8  1  0  0  0  0
  7 16  1  0  0  0  0
  7 17  1  0  0  0  0
  8 11  2  0  0  0  0
  8 12  1  0  0  0  0
  9 18  1  0  0  0  0
  9 19  1  0  0  0  0
  9 20  1  0  0  0  0
 11 13  1  0  0  0  0
 11 23  1  0  0  0  0
 12 14  2  0  0  0  0
 12 24  1  0  0  0  0
 13 15  2  0  0  0  0
 14 15  1  0  0  0  0
 14 25  1  0  0  0  0
M  END
