DB00457
 OpenBabel07062211533D

 49 52  0  0  0  0  0  0  0  0999 V2000
   -6.0041   -0.9253   -1.8009 O   0  0  0  0  0  0  0  0  0  0  0  0
   -5.7668    0.4748    1.3806 O   0  0  0  0  0  0  0  0  0  0  0  0
    5.2256    2.4141   -0.0194 O   0  0  0  0  0  0  0  0  0  0  0  0
    6.4362   -0.0722    0.2530 O   0  0  0  0  0  0  0  0  0  0  0  0
   -1.1802   -0.6868   -0.3941 N   0  0  0  0  0  0  0  0  0  0  0  0
   -4.0572   -0.4469   -0.6487 N   0  0  0  0  0  0  0  0  0  0  0  0
    0.9461    0.3400   -0.2690 N   0  0  0  0  0  0  0  0  0  0  0  0
    0.7259   -2.0556   -0.1319 N   0  0  0  0  0  0  0  0  0  0  0  0
    2.6230   -3.4228    0.1289 N   0  0  0  0  0  0  0  0  0  0  0  0
   -1.8141    0.6266   -0.5373 C   0  0  0  0  0  0  0  0  0  0  0  0
   -2.0398   -1.8736   -0.4055 C   0  0  0  0  0  0  0  0  0  0  0  0
   -3.2477    0.5951   -0.0067 C   0  0  0  0  0  0  0  0  0  0  0  0
   -3.3277   -1.5971   -1.1779 C   0  0  0  0  0  0  0  0  0  0  0  0
    0.2008   -0.8061   -0.2615 C   0  0  0  0  0  0  0  0  0  0  0  0
   -5.4492   -0.3697   -0.8504 C   0  0  0  0  0  0  0  0  0  0  0  0
    2.2805    0.2326   -0.1417 C   0  0  0  0  0  0  0  0  0  0  0  0
   -6.2281    0.4089    0.1099 C   0  0  0  0  0  0  0  0  0  0  0  0
    2.9053   -1.0177   -0.0035 C   0  0  0  0  0  0  0  0  0  0  0  0
    2.0645   -2.1273   -0.0065 C   0  0  0  0  0  0  0  0  0  0  0  0
    3.0890    1.3666   -0.1433 C   0  0  0  0  0  0  0  0  0  0  0  0
    4.3012   -1.1179    0.1289 C   0  0  0  0  0  0  0  0  0  0  0  0
   -7.3890    1.1178   -0.0358 C   0  0  0  0  0  0  0  0  0  0  0  0
    4.4779    1.2753   -0.0120 C   0  0  0  0  0  0  0  0  0  0  0  0
    5.0850    0.0318    0.1241 C   0  0  0  0  0  0  0  0  0  0  0  0
   -7.6687    1.6641    1.2395 C   0  0  0  0  0  0  0  0  0  0  0  0
   -6.6528    1.2442    2.0661 C   0  0  0  0  0  0  0  0  0  0  0  0
    5.6948    2.8730   -1.2856 C   0  0  0  0  0  0  0  0  0  0  0  0
    6.9664   -0.0390    1.5771 C   0  0  0  0  0  0  0  0  0  0  0  0
   -1.8067    0.9133   -1.5958 H   0  0  0  0  0  0  0  0  0  0  0  0
   -1.2717    1.3974    0.0224 H   0  0  0  0  0  0  0  0  0  0  0  0
   -2.2696   -2.1584    0.6282 H   0  0  0  0  0  0  0  0  0  0  0  0
   -1.5418   -2.7239   -0.8858 H   0  0  0  0  0  0  0  0  0  0  0  0
   -3.2345    0.3747    1.0673 H   0  0  0  0  0  0  0  0  0  0  0  0
   -3.7293    1.5684   -0.1484 H   0  0  0  0  0  0  0  0  0  0  0  0
   -3.1030   -1.3747   -2.2285 H   0  0  0  0  0  0  0  0  0  0  0  0
   -3.9813   -2.4767   -1.1631 H   0  0  0  0  0  0  0  0  0  0  0  0
    2.6307    2.3490   -0.2480 H   0  0  0  0  0  0  0  0  0  0  0  0
    4.8030   -2.0767    0.2274 H   0  0  0  0  0  0  0  0  0  0  0  0
   -7.9683    1.2337   -0.9406 H   0  0  0  0  0  0  0  0  0  0  0  0
    3.4190   -3.5434    0.7425 H   0  0  0  0  0  0  0  0  0  0  0  0
    1.9631   -4.1912    0.0916 H   0  0  0  0  0  0  0  0  0  0  0  0
   -8.5059    2.2864    1.5208 H   0  0  0  0  0  0  0  0  0  0  0  0
   -6.4270    1.3982    3.1112 H   0  0  0  0  0  0  0  0  0  0  0  0
    6.3396    2.1221   -1.7529 H   0  0  0  0  0  0  0  0  0  0  0  0
    6.2783    3.7837   -1.1252 H   0  0  0  0  0  0  0  0  0  0  0  0
    4.8527    3.1080   -1.9443 H   0  0  0  0  0  0  0  0  0  0  0  0
    6.5819   -0.8786    2.1649 H   0  0  0  0  0  0  0  0  0  0  0  0
    6.7195    0.9079    2.0673 H   0  0  0  0  0  0  0  0  0  0  0  0
    8.0544   -0.1263    1.5125 H   0  0  0  0  0  0  0  0  0  0  0  0
  1 15  2  0  0  0  0
  2 17  1  0  0  0  0
  2 26  1  0  0  0  0
  3 23  1  0  0  0  0
  3 27  1  0  0  0  0
  4 24  1  0  0  0  0
  4 28  1  0  0  0  0
  5 10  1  0  0  0  0
  5 11  1  0  0  0  0
  5 14  1  0  0  0  0
  6 12  1  0  0  0  0
  6 13  1  0  0  0  0
  6 15  1  0  0  0  0
  7 14  2  0  0  0  0
  7 16  1  0  0  0  0
  8 14  1  0  0  0  0
  8 19  2  0  0  0  0
  9 19  1  0  0  0  0
  9 40  1  0  0  0  0
  9 41  1  0  0  0  0
 10 12  1  0  0  0  0
 10 29  1  0  0  0  0
 10 30  1  0  0  0  0
 11 13  1  0  0  0  0
 11 31  1  0  0  0  0
 11 32  1  0  0  0  0
 12 33  1  0  0  0  0
 12 34  1  0  0  0  0
 13 35  1  0  0  0  0
 13 36  1  0  0  0  0
 15 17  1  0  0  0  0
 16 18  2  0  0  0  0
 16 20  1  0  0  0  0
 17 22  2  0  0  0  0
 18 19  1  0  0  0  0
 18 21  1  0  0  0  0
 20 23  2  0  0  0  0
 20 37  1  0  0  0  0
 21 24  2  0  0  0  0
 21 38  1  0  0  0  0
 22 25  1  0  0  0  0
 22 39  1  0  0  0  0
 23 24  1  0  0  0  0
 25 26  2  0  0  0  0
 25 42  1  0  0  0  0
 26 43  1  0  0  0  0
 27 44  1  0  0  0  0
 27 45  1  0  0  0  0
 27 46  1  0  0  0  0
 28 47  1  0  0  0  0
 28 48  1  0  0  0  0
 28 49  1  0  0  0  0
M  END
