DB00856
 OpenBabel07062211533D

 24 24  0  0  1  0  0  0  0  0999 V2000
   -5.6225   -0.6684    0.4807 Cl  0  0  0  0  0  0  0  0  0  0  0  0
   -0.0108    0.7280   -0.5366 O   0  0  0  0  0  0  0  0  0  0  0  0
    2.7433    1.1507   -0.9909 O   0  0  0  0  0  0  0  0  0  0  0  0
    4.5611    0.1536    0.8502 O   0  0  0  0  0  0  0  0  0  0  0  0
    2.2808    0.4554    0.1693 C   0  0  1  0  0  0  0  0  0  0  0  0
    0.9666   -0.2395   -0.1681 C   0  0  0  0  0  0  0  0  0  0  0  0
    3.3530   -0.5475    0.5748 C   0  0  0  0  0  0  0  0  0  0  0  0
   -1.3196    0.4023   -0.2992 C   0  0  0  0  0  0  0  0  0  0  0  0
   -1.7153   -0.9302   -0.3348 C   0  0  0  0  0  0  0  0  0  0  0  0
   -2.2409    1.4075   -0.0247 C   0  0  0  0  0  0  0  0  0  0  0  0
   -3.0484   -1.2619   -0.0933 C   0  0  0  0  0  0  0  0  0  0  0  0
   -3.5739    1.0758    0.2170 C   0  0  0  0  0  0  0  0  0  0  0  0
   -3.9779   -0.2590    0.1828 C   0  0  0  0  0  0  0  0  0  0  0  0
    2.1371    1.2141    0.9457 H   0  0  0  0  0  0  0  0  0  0  0  0
    0.6542   -0.8093    0.7167 H   0  0  0  0  0  0  0  0  0  0  0  0
    1.1085   -0.9212   -1.0155 H   0  0  0  0  0  0  0  0  0  0  0  0
    3.5621   -1.2649   -0.2256 H   0  0  0  0  0  0  0  0  0  0  0  0
    3.0625   -1.0977    1.4747 H   0  0  0  0  0  0  0  0  0  0  0  0
   -1.0308   -1.7385   -0.5732 H   0  0  0  0  0  0  0  0  0  0  0  0
   -1.9303    2.4481    0.0029 H   0  0  0  0  0  0  0  0  0  0  0  0
    2.8746    0.4981   -1.6999 H   0  0  0  0  0  0  0  0  0  0  0  0
   -3.3507   -2.3055   -0.1292 H   0  0  0  0  0  0  0  0  0  0  0  0
   -4.2870    1.8679    0.4307 H   0  0  0  0  0  0  0  0  0  0  0  0
    4.8044    0.6422    0.0454 H   0  0  0  0  0  0  0  0  0  0  0  0
  1 13  1  0  0  0  0
  2  6  1  0  0  0  0
  2  8  1  0  0  0  0
  3  5  1  0  0  0  0
  3 21  1  0  0  0  0
  4  7  1  0  0  0  0
  4 24  1  0  0  0  0
  5  6  1  0  0  0  0
  5  7  1  0  0  0  0
  5 14  1  1  0  0  0
  6 15  1  0  0  0  0
  6 16  1  0  0  0  0
  7 17  1  0  0  0  0
  7 18  1  0  0  0  0
  8  9  2  0  0  0  0
  8 10  1  0  0  0  0
  9 11  1  0  0  0  0
  9 19  1  0  0  0  0
 10 12  2  0  0  0  0
 10 20  1  0  0  0  0
 11 13  2  0  0  0  0
 11 22  1  0  0  0  0
 12 13  1  0  0  0  0
 12 23  1  0  0  0  0
M  END
