DB00949
 OpenBabel07062211533D

 31 31  0  0  0  0  0  0  0  0999 V2000
    2.4470   -0.9236   -0.2532 O   0  0  0  0  0  0  0  0  0  0  0  0
   -2.3908   -0.9011   -0.4911 O   0  0  0  0  0  0  0  0  0  0  0  0
    3.6979   -2.2835    1.1199 O   0  0  0  0  0  0  0  0  0  0  0  0
   -3.7997   -2.2441    0.7380 O   0  0  0  0  0  0  0  0  0  0  0  0
    4.6961   -0.8868   -0.4097 N   0  0  0  0  0  0  0  0  0  0  0  0
   -4.6104   -0.8292   -0.8831 N   0  0  0  0  0  0  0  0  0  0  0  0
    0.0169   -0.7611   -0.2981 C   0  0  0  0  0  0  0  0  0  0  0  0
   -0.0006    0.7451   -0.0666 C   0  0  0  0  0  0  0  0  0  0  0  0
    1.2508   -1.4220    0.3365 C   0  0  0  0  0  0  0  0  0  0  0  0
   -1.2711   -1.4189    0.2191 C   0  0  0  0  0  0  0  0  0  0  0  0
   -0.6245    1.2378    1.0600 C   0  0  0  0  0  0  0  0  0  0  0  0
    0.6076    1.5672   -0.9918 C   0  0  0  0  0  0  0  0  0  0  0  0
   -0.6409    2.6165    1.2716 C   0  0  0  0  0  0  0  0  0  0  0  0
    0.5913    2.9458   -0.7803 C   0  0  0  0  0  0  0  0  0  0  0  0
   -0.0331    3.4705    0.3515 C   0  0  0  0  0  0  0  0  0  0  0  0
    3.6164   -1.4407    0.2327 C   0  0  0  0  0  0  0  0  0  0  0  0
   -3.6127   -1.4010   -0.1329 C   0  0  0  0  0  0  0  0  0  0  0  0
    0.0540   -0.9169   -1.3859 H   0  0  0  0  0  0  0  0  0  0  0  0
    1.2072   -2.5064    0.1778 H   0  0  0  0  0  0  0  0  0  0  0  0
    1.2732   -1.2270    1.4163 H   0  0  0  0  0  0  0  0  0  0  0  0
   -1.2138   -2.4947    0.0049 H   0  0  0  0  0  0  0  0  0  0  0  0
   -1.4104   -1.3242    1.3010 H   0  0  0  0  0  0  0  0  0  0  0  0
   -1.0816    0.6150    1.8186 H   0  0  0  0  0  0  0  0  0  0  0  0
    1.0963    1.1681   -1.8754 H   0  0  0  0  0  0  0  0  0  0  0  0
   -1.1204    3.0253    2.1564 H   0  0  0  0  0  0  0  0  0  0  0  0
    1.0652    3.6108   -1.4964 H   0  0  0  0  0  0  0  0  0  0  0  0
   -0.0443    4.5437    0.5169 H   0  0  0  0  0  0  0  0  0  0  0  0
    4.5772   -0.1912   -1.1385 H   0  0  0  0  0  0  0  0  0  0  0  0
    5.6457   -1.1555   -0.1750 H   0  0  0  0  0  0  0  0  0  0  0  0
   -4.4052   -0.1342   -1.5929 H   0  0  0  0  0  0  0  0  0  0  0  0
   -5.5834   -1.0837   -0.7503 H   0  0  0  0  0  0  0  0  0  0  0  0
  1  9  1  0  0  0  0
  1 16  1  0  0  0  0
  2 10  1  0  0  0  0
  2 17  1  0  0  0  0
  3 16  2  0  0  0  0
  4 17  2  0  0  0  0
  5 16  1  0  0  0  0
  5 28  1  0  0  0  0
  5 29  1  0  0  0  0
  6 17  1  0  0  0  0
  6 30  1  0  0  0  0
  6 31  1  0  0  0  0
  7  8  1  0  0  0  0
  7  9  1  0  0  0  0
  7 10  1  0  0  0  0
  7 18  1  0  0  0  0
  8 11  2  0  0  0  0
  8 12  1  0  0  0  0
  9 19  1  0  0  0  0
  9 20  1  0  0  0  0
 10 21  1  0  0  0  0
 10 22  1  0  0  0  0
 11 13  1  0  0  0  0
 11 23  1  0  0  0  0
 12 14  2  0  0  0  0
 12 24  1  0  0  0  0
 13 15  2  0  0  0  0
 13 25  1  0  0  0  0
 14 15  1  0  0  0  0
 14 26  1  0  0  0  0
 15 27  1  0  0  0  0
M  END
