DB00819
 OpenBabel07062211533D

 19 19  0  0  0  0  0  0  0  0999 V2000
   -3.5508    0.0198   -0.6224 S   0  0  0  0  0  0  0  0  0  0  0  0
   -0.7326    0.9551   -0.5176 S   0  0  0  0  0  0  0  0  0  0  0  0
   -3.6216    1.2035   -1.4822 O   0  0  0  0  0  0  0  0  0  0  0  0
   -4.1578   -1.2361   -1.0646 O   0  0  0  0  0  0  0  0  0  0  0  0
    2.9428   -1.7259    0.3845 O   0  0  0  0  0  0  0  0  0  0  0  0
    1.7699    0.2461   -0.1224 N   0  0  0  0  0  0  0  0  0  0  0  0
   -1.3437   -1.4977   -0.0974 N   0  0  0  0  0  0  0  0  0  0  0  0
   -4.2682    0.4467    0.8872 N   0  0  0  0  0  0  0  0  0  0  0  0
    0.0326   -1.4280    0.0305 N   0  0  0  0  0  0  0  0  0  0  0  0
   -1.8671   -0.3244   -0.3823 C   0  0  0  0  0  0  0  0  0  0  0  0
    0.5038   -0.1975   -0.1637 C   0  0  0  0  0  0  0  0  0  0  0  0
    2.9532   -0.5265    0.1495 C   0  0  0  0  0  0  0  0  0  0  0  0
    4.2066    0.2968    0.1122 C   0  0  0  0  0  0  0  0  0  0  0  0
    1.8941    1.2384   -0.3062 H   0  0  0  0  0  0  0  0  0  0  0  0
   -4.3424   -0.3038    1.5860 H   0  0  0  0  0  0  0  0  0  0  0  0
   -3.9678    1.3394    1.2993 H   0  0  0  0  0  0  0  0  0  0  0  0
    4.3634    0.6806   -0.8995 H   0  0  0  0  0  0  0  0  0  0  0  0
    5.0626   -0.3201    0.3982 H   0  0  0  0  0  0  0  0  0  0  0  0
    4.1227    1.1337    0.8109 H   0  0  0  0  0  0  0  0  0  0  0  0
  1  3  2  0  0  0  0
  1  4  2  0  0  0  0
  1  8  1  0  0  0  0
  1 10  1  0  0  0  0
  2 10  1  0  0  0  0
  2 11  1  0  0  0  0
  5 12  2  0  0  0  0
  6 11  1  0  0  0  0
  6 12  1  0  0  0  0
  6 14  1  0  0  0  0
  7  9  1  0  0  0  0
  7 10  2  0  0  0  0
  8 15  1  0  0  0  0
  8 16  1  0  0  0  0
  9 11  2  0  0  0  0
 12 13  1  0  0  0  0
 13 17  1  0  0  0  0
 13 18  1  0  0  0  0
 13 19  1  0  0  0  0
M  END
