DB00459
 OpenBabel07062211533D

 50 50  0  0  0  0  0  0  0  0999 V2000
    6.4367    0.1146    1.4174 O   0  0  0  0  0  0  0  0  0  0  0  0
   -9.0137   -0.7325    2.3418 O   0  0  0  0  0  0  0  0  0  0  0  0
   -9.1462   -0.2257    0.1248 O   0  0  0  0  0  0  0  0  0  0  0  0
    3.2976   -0.8859   -0.1924 C   0  0  0  0  0  0  0  0  0  0  0  0
    2.6204    0.3260   -0.1724 C   0  0  0  0  0  0  0  0  0  0  0  0
    4.5840   -0.9640    0.3416 C   0  0  0  0  0  0  0  0  0  0  0  0
    3.2058    1.4613    0.3720 C   0  0  0  0  0  0  0  0  0  0  0  0
    5.1812    0.1707    0.8906 C   0  0  0  0  0  0  0  0  0  0  0  0
    4.4922    1.3834    0.9060 C   0  0  0  0  0  0  0  0  0  0  0  0
    2.6682   -2.1122   -0.7793 C   0  0  0  0  0  0  0  0  0  0  0  0
    1.2620    0.4117   -0.7351 C   0  0  0  0  0  0  0  0  0  0  0  0
    5.3314   -2.2594    0.3306 C   0  0  0  0  0  0  0  0  0  0  0  0
    2.5009    2.7797    0.4070 C   0  0  0  0  0  0  0  0  0  0  0  0
    0.1288    0.2183   -0.0398 C   0  0  0  0  0  0  0  0  0  0  0  0
   -1.2176    0.2954   -0.6035 C   0  0  0  0  0  0  0  0  0  0  0  0
    7.5228    0.3799    0.5322 C   0  0  0  0  0  0  0  0  0  0  0  0
   -1.2176    0.5726   -2.0838 C   0  0  0  0  0  0  0  0  0  0  0  0
   -2.3076    0.0878    0.1634 C   0  0  0  0  0  0  0  0  0  0  0  0
   -3.6948    0.1073   -0.2596 C   0  0  0  0  0  0  0  0  0  0  0  0
   -4.7133   -0.1136    0.5899 C   0  0  0  0  0  0  0  0  0  0  0  0
   -6.1443   -0.1213    0.2647 C   0  0  0  0  0  0  0  0  0  0  0  0
   -6.5295    0.1704   -1.1631 C   0  0  0  0  0  0  0  0  0  0  0  0
   -7.0168   -0.3646    1.2633 C   0  0  0  0  0  0  0  0  0  0  0  0
   -8.4903   -0.4136    1.1337 C   0  0  0  0  0  0  0  0  0  0  0  0
    4.9665    2.2613    1.3381 H   0  0  0  0  0  0  0  0  0  0  0  0
    3.3978   -2.7237   -1.3202 H   0  0  0  0  0  0  0  0  0  0  0  0
    2.2155   -2.7168    0.0134 H   0  0  0  0  0  0  0  0  0  0  0  0
    1.8963   -1.8861   -1.5213 H   0  0  0  0  0  0  0  0  0  0  0  0
    1.2689    0.6524   -1.7942 H   0  0  0  0  0  0  0  0  0  0  0  0
    5.7173   -2.4656   -0.6731 H   0  0  0  0  0  0  0  0  0  0  0  0
    6.1801   -2.2632    1.0222 H   0  0  0  0  0  0  0  0  0  0  0  0
    4.6921   -3.0889    0.6515 H   0  0  0  0  0  0  0  0  0  0  0  0
    1.6284    2.7315    1.0667 H   0  0  0  0  0  0  0  0  0  0  0  0
    3.1500    3.5779    0.7842 H   0  0  0  0  0  0  0  0  0  0  0  0
    2.1832    3.0780   -0.5977 H   0  0  0  0  0  0  0  0  0  0  0  0
    0.1989   -0.0160    1.0211 H   0  0  0  0  0  0  0  0  0  0  0  0
    7.4752    1.4116    0.1698 H   0  0  0  0  0  0  0  0  0  0  0  0
    7.5170   -0.3145   -0.3140 H   0  0  0  0  0  0  0  0  0  0  0  0
    8.4561    0.2471    1.0862 H   0  0  0  0  0  0  0  0  0  0  0  0
   -0.7693    1.5483   -2.3044 H   0  0  0  0  0  0  0  0  0  0  0  0
   -0.6850   -0.2100   -2.6366 H   0  0  0  0  0  0  0  0  0  0  0  0
   -2.2228    0.6051   -2.5114 H   0  0  0  0  0  0  0  0  0  0  0  0
   -2.1562   -0.1199    1.2229 H   0  0  0  0  0  0  0  0  0  0  0  0
   -3.8978    0.3079   -1.3045 H   0  0  0  0  0  0  0  0  0  0  0  0
   -4.4714   -0.3135    1.6341 H   0  0  0  0  0  0  0  0  0  0  0  0
   -7.5966    0.1813   -1.3714 H   0  0  0  0  0  0  0  0  0  0  0  0
   -6.0961   -0.5827   -1.8315 H   0  0  0  0  0  0  0  0  0  0  0  0
   -6.1535    1.1559   -1.4623 H   0  0  0  0  0  0  0  0  0  0  0  0
   -6.6422   -0.5555    2.2681 H   0  0  0  0  0  0  0  0  0  0  0  0
   -9.9928   -0.7883    2.3144 H   0  0  0  0  0  0  0  0  0  0  0  0
  1  8  1  0  0  0  0
  1 16  1  0  0  0  0
  2 24  1  0  0  0  0
  2 50  1  0  0  0  0
  3 24  2  0  0  0  0
  4  5  2  0  0  0  0
  4  6  1  0  0  0  0
  4 10  1  0  0  0  0
  5  7  1  0  0  0  0
  5 11  1  0  0  0  0
  6  8  2  0  0  0  0
  6 12  1  0  0  0  0
  7  9  2  0  0  0  0
  7 13  1  0  0  0  0
  8  9  1  0  0  0  0
  9 25  1  0  0  0  0
 10 26  1  0  0  0  0
 10 27  1  0  0  0  0
 10 28  1  0  0  0  0
 11 14  2  0  0  0  0
 11 29  1  0  0  0  0
 12 30  1  0  0  0  0
 12 31  1  0  0  0  0
 12 32  1  0  0  0  0
 13 33  1  0  0  0  0
 13 34  1  0  0  0  0
 13 35  1  0  0  0  0
 14 15  1  0  0  0  0
 14 36  1  0  0  0  0
 15 17  1  0  0  0  0
 15 18  2  0  0  0  0
 16 37  1  0  0  0  0
 16 38  1  0  0  0  0
 16 39  1  0  0  0  0
 17 40  1  0  0  0  0
 17 41  1  0  0  0  0
 17 42  1  0  0  0  0
 18 19  1  0  0  0  0
 18 43  1  0  0  0  0
 19 20  2  0  0  0  0
 19 44  1  0  0  0  0
 20 21  1  0  0  0  0
 20 45  1  0  0  0  0
 21 22  1  0  0  0  0
 21 23  2  0  0  0  0
 22 46  1  0  0  0  0
 22 47  1  0  0  0  0
 22 48  1  0  0  0  0
 23 24  1  0  0  0  0
 23 49  1  0  0  0  0
M  END
