DB00750
 OpenBabel07062211533D

 36 36  0  0  1  0  0  0  0  0999 V2000
    0.2414   -1.1740   -1.8950 O   0  0  0  0  0  0  0  0  0  0  0  0
    2.5735   -0.8951   -0.2149 N   0  0  0  0  0  0  0  0  0  0  0  0
   -0.7868   -0.7311    0.1682 N   0  0  0  0  0  0  0  0  0  0  0  0
    1.4156   -1.7129    0.1384 C   0  0  1  0  0  0  0  0  0  0  0  0
    2.3336    0.5046    0.1017 C   0  0  0  0  0  0  0  0  0  0  0  0
    3.5478    1.3492   -0.2762 C   0  0  0  0  0  0  0  0  0  0  0  0
    0.2353   -1.1753   -0.6672 C   0  0  0  0  0  0  0  0  0  0  0  0
    1.7040   -3.1738   -0.1867 C   0  0  0  0  0  0  0  0  0  0  0  0
   -2.0301   -0.1714   -0.2110 C   0  0  0  0  0  0  0  0  0  0  0  0
   -2.9422    0.2213    0.7557 C   0  0  0  0  0  0  0  0  0  0  0  0
    3.3307    2.8153    0.0649 C   0  0  0  0  0  0  0  0  0  0  0  0
   -2.3069   -0.0291   -1.5618 C   0  0  0  0  0  0  0  0  0  0  0  0
   -4.1622    0.7709    0.3617 C   0  0  0  0  0  0  0  0  0  0  0  0
   -2.6559    0.0732    2.2149 C   0  0  0  0  0  0  0  0  0  0  0  0
   -3.5268    0.5205   -1.9557 C   0  0  0  0  0  0  0  0  0  0  0  0
   -4.4545    0.9204   -0.9940 C   0  0  0  0  0  0  0  0  0  0  0  0
    1.2289   -1.6400    1.2166 H   0  0  0  0  0  0  0  0  0  0  0  0
    1.4779    0.9123   -0.4472 H   0  0  0  0  0  0  0  0  0  0  0  0
    2.1314    0.6218    1.1738 H   0  0  0  0  0  0  0  0  0  0  0  0
    3.3968   -1.2277    0.2864 H   0  0  0  0  0  0  0  0  0  0  0  0
    4.4380    0.9895    0.2543 H   0  0  0  0  0  0  0  0  0  0  0  0
    3.7514    1.2570   -1.3501 H   0  0  0  0  0  0  0  0  0  0  0  0
    1.9303   -3.3156   -1.2498 H   0  0  0  0  0  0  0  0  0  0  0  0
    2.5520   -3.5498    0.3958 H   0  0  0  0  0  0  0  0  0  0  0  0
    0.8317   -3.7951    0.0446 H   0  0  0  0  0  0  0  0  0  0  0  0
   -0.6307   -0.8115    1.1687 H   0  0  0  0  0  0  0  0  0  0  0  0
    2.4693    3.2211   -0.4753 H   0  0  0  0  0  0  0  0  0  0  0  0
    3.1575    2.9474    1.1377 H   0  0  0  0  0  0  0  0  0  0  0  0
    4.2118    3.4028   -0.2115 H   0  0  0  0  0  0  0  0  0  0  0  0
   -1.6487   -0.3095   -2.3697 H   0  0  0  0  0  0  0  0  0  0  0  0
   -4.8965    1.0880    1.0974 H   0  0  0  0  0  0  0  0  0  0  0  0
   -3.4871    0.4349    2.8303 H   0  0  0  0  0  0  0  0  0  0  0  0
   -2.4993   -0.9797    2.4720 H   0  0  0  0  0  0  0  0  0  0  0  0
   -1.7712    0.6548    2.4949 H   0  0  0  0  0  0  0  0  0  0  0  0
   -3.7558    0.6381   -3.0111 H   0  0  0  0  0  0  0  0  0  0  0  0
   -5.4043    1.3484   -1.3008 H   0  0  0  0  0  0  0  0  0  0  0  0
  1  7  2  0  0  0  0
  2  4  1  0  0  0  0
  2  5  1  0  0  0  0
  2 20  1  0  0  0  0
  3  7  1  0  0  0  0
  3  9  1  0  0  0  0
  3 26  1  0  0  0  0
  4  7  1  0  0  0  0
  4  8  1  0  0  0  0
  4 17  1  1  0  0  0
  5  6  1  0  0  0  0
  5 18  1  0  0  0  0
  5 19  1  0  0  0  0
  6 11  1  0  0  0  0
  6 21  1  0  0  0  0
  6 22  1  0  0  0  0
  8 23  1  0  0  0  0
  8 24  1  0  0  0  0
  8 25  1  0  0  0  0
  9 10  2  0  0  0  0
  9 12  1  0  0  0  0
 10 13  1  0  0  0  0
 10 14  1  0  0  0  0
 11 27  1  0  0  0  0
 11 28  1  0  0  0  0
 11 29  1  0  0  0  0
 12 15  2  0  0  0  0
 12 30  1  0  0  0  0
 13 16  2  0  0  0  0
 13 31  1  0  0  0  0
 14 32  1  0  0  0  0
 14 33  1  0  0  0  0
 14 34  1  0  0  0  0
 15 16  1  0  0  0  0
 15 35  1  0  0  0  0
 16 36  1  0  0  0  0
M  END
