DB00170
 OpenBabel07062211533D

 21 22  0  0  0  0  0  0  0  0999 V2000
   -1.1455   -2.2314   -0.0022 O   0  0  0  0  0  0  0  0  0  0  0  0
   -0.0103    2.9915    0.0000 O   0  0  0  0  0  0  0  0  0  0  0  0
    0.5263   -0.5762   -0.0007 C   0  0  0  0  0  0  0  0  0  0  0  0
    0.8302    0.7859   -0.0007 C   0  0  0  0  0  0  0  0  0  0  0  0
   -1.9499   -0.0028   -0.0005 C   0  0  0  0  0  0  0  0  0  0  0  0
   -0.8776   -1.0351   -0.0011 C   0  0  0  0  0  0  0  0  0  0  0  0
   -0.2481    1.7899   -0.0008 C   0  0  0  0  0  0  0  0  0  0  0  0
   -1.6414    1.2990   -0.0002 C   0  0  0  0  0  0  0  0  0  0  0  0
    1.5606   -1.5201    0.0000 C   0  0  0  0  0  0  0  0  0  0  0  0
    2.1652    1.2067   -0.0003 C   0  0  0  0  0  0  0  0  0  0  0  0
   -3.3659   -0.4926    0.0007 C   0  0  0  0  0  0  0  0  0  0  0  0
    2.8906   -1.0978    0.0006 C   0  0  0  0  0  0  0  0  0  0  0  0
    3.1923    0.2627    0.0003 C   0  0  0  0  0  0  0  0  0  0  0  0
   -2.4179    2.0578    0.0005 H   0  0  0  0  0  0  0  0  0  0  0  0
    1.3522   -2.5866    0.0001 H   0  0  0  0  0  0  0  0  0  0  0  0
    2.4247    2.2620   -0.0004 H   0  0  0  0  0  0  0  0  0  0  0  0
   -4.0858    0.3328    0.0017 H   0  0  0  0  0  0  0  0  0  0  0  0
   -3.5592   -1.1020    0.8896 H   0  0  0  0  0  0  0  0  0  0  0  0
   -3.5609   -1.1012   -0.8885 H   0  0  0  0  0  0  0  0  0  0  0  0
    3.6921   -1.8310    0.0012 H   0  0  0  0  0  0  0  0  0  0  0  0
    4.2284    0.5886    0.0007 H   0  0  0  0  0  0  0  0  0  0  0  0
  1  6  2  0  0  0  0
  2  7  2  0  0  0  0
  3  4  2  0  0  0  0
  3  6  1  0  0  0  0
  3  9  1  0  0  0  0
  4  7  1  0  0  0  0
  4 10  1  0  0  0  0
  5  6  1  0  0  0  0
  5  8  2  0  0  0  0
  5 11  1  0  0  0  0
  7  8  1  0  0  0  0
  8 14  1  0  0  0  0
  9 12  2  0  0  0  0
  9 15  1  0  0  0  0
 10 13  2  0  0  0  0
 10 16  1  0  0  0  0
 11 17  1  0  0  0  0
 11 18  1  0  0  0  0
 11 19  1  0  0  0  0
 12 13  1  0  0  0  0
 12 20  1  0  0  0  0
 13 21  1  0  0  0  0
M  END
