DB00783
 OpenBabel07062211533D

 44 47  0  0  1  0  0  0  0  0999 V2000
   -4.5678    1.3449   -0.2331 O   0  0  0  0  0  0  0  0  0  0  0  0
    6.3137    0.0045   -0.4606 O   0  0  0  0  0  0  0  0  0  0  0  0
   -2.1885    0.7062   -0.1227 C   0  0  1  0  0  0  0  0  0  0  0  0
   -1.5446   -0.5885    0.4130 C   0  0  2  0  0  0  0  0  0  0  0  0
   -0.0818   -0.7228   -0.0092 C   0  0  1  0  0  0  0  0  0  0  0  0
    0.7205    0.4751    0.5838 C   0  0  2  0  0  0  0  0  0  0  0  0
   -3.6228    0.5069    0.4034 C   0  0  2  0  0  0  0  0  0  0  0  0
   -1.4388    1.8983    0.4841 C   0  0  0  0  0  0  0  0  0  0  0  0
   -2.5412   -1.6728    0.0127 C   0  0  0  0  0  0  0  0  0  0  0  0
    0.0733    1.8319    0.1954 C   0  0  0  0  0  0  0  0  0  0  0  0
   -3.9123   -0.9841    0.1406 C   0  0  0  0  0  0  0  0  0  0  0  0
    0.5505   -2.0307    0.4702 C   0  0  0  0  0  0  0  0  0  0  0  0
   -2.1948    0.8382   -1.6673 C   0  0  0  0  0  0  0  0  0  0  0  0
    2.2089    0.3543    0.2681 C   0  0  0  0  0  0  0  0  0  0  0  0
    1.9578   -2.1660   -0.1037 C   0  0  0  0  0  0  0  0  0  0  0  0
    2.7825   -0.9053   -0.0122 C   0  0  0  0  0  0  0  0  0  0  0  0
    3.0600    1.4716    0.3357 C   0  0  0  0  0  0  0  0  0  0  0  0
    4.1617   -1.0059   -0.2675 C   0  0  0  0  0  0  0  0  0  0  0  0
    4.4298    1.3561    0.0891 C   0  0  0  0  0  0  0  0  0  0  0  0
    4.9803    0.1184   -0.2173 C   0  0  0  0  0  0  0  0  0  0  0  0
   -1.5571   -0.5566    1.5155 H   0  0  0  0  0  0  0  0  0  0  0  0
   -0.0131   -0.7059   -1.1046 H   0  0  0  0  0  0  0  0  0  0  0  0
    0.6570    0.4066    1.6810 H   0  0  0  0  0  0  0  0  0  0  0  0
   -3.6687    0.7043    1.4819 H   0  0  0  0  0  0  0  0  0  0  0  0
   -1.5816    1.9148    1.5726 H   0  0  0  0  0  0  0  0  0  0  0  0
   -1.8447    2.8447    0.1069 H   0  0  0  0  0  0  0  0  0  0  0  0
   -2.4757   -2.5506    0.6634 H   0  0  0  0  0  0  0  0  0  0  0  0
   -2.3769   -2.0099   -1.0167 H   0  0  0  0  0  0  0  0  0  0  0  0
    0.2617    2.0427   -0.8641 H   0  0  0  0  0  0  0  0  0  0  0  0
    0.5418    2.6491    0.7562 H   0  0  0  0  0  0  0  0  0  0  0  0
   -4.5097   -1.1351   -0.7656 H   0  0  0  0  0  0  0  0  0  0  0  0
   -4.4849   -1.4073    0.9733 H   0  0  0  0  0  0  0  0  0  0  0  0
   -0.0430   -2.8972    0.1581 H   0  0  0  0  0  0  0  0  0  0  0  0
    0.5906   -2.0495    1.5670 H   0  0  0  0  0  0  0  0  0  0  0  0
   -2.6702    1.7780   -1.9717 H   0  0  0  0  0  0  0  0  0  0  0  0
   -1.1892    0.8413   -2.0959 H   0  0  0  0  0  0  0  0  0  0  0  0
   -2.7458    0.0275   -2.1545 H   0  0  0  0  0  0  0  0  0  0  0  0
    1.8859   -2.4442   -1.1631 H   0  0  0  0  0  0  0  0  0  0  0  0
    2.4705   -2.9840    0.4167 H   0  0  0  0  0  0  0  0  0  0  0  0
   -5.4482    1.0931    0.0940 H   0  0  0  0  0  0  0  0  0  0  0  0
    2.6771    2.4555    0.5892 H   0  0  0  0  0  0  0  0  0  0  0  0
    4.5983   -1.9738   -0.5051 H   0  0  0  0  0  0  0  0  0  0  0  0
    5.0546    2.2437    0.1446 H   0  0  0  0  0  0  0  0  0  0  0  0
    6.7248    0.8826   -0.3818 H   0  0  0  0  0  0  0  0  0  0  0  0
  1  7  1  0  0  0  0
  1 40  1  0  0  0  0
  2 20  1  0  0  0  0
  2 44  1  0  0  0  0
  3  4  1  1  0  0  0
  3  8  1  0  0  0  0
  3 13  1  0  0  0  0
  4  5  1  6  0  0  0
  4  9  1  0  0  0  0
  4 21  1  0  0  0  0
  5  6  1  1  0  0  0
  5 12  1  0  0  0  0
  5 22  1  0  0  0  0
  6 10  1  0  0  0  0
  6 14  1  0  0  0  0
  6 23  1  1  0  0  0
  7  3  1  6  0  0  0
  7 11  1  0  0  0  0
  7 24  1  0  0  0  0
  8 10  1  0  0  0  0
  8 25  1  0  0  0  0
  8 26  1  0  0  0  0
  9 11  1  0  0  0  0
  9 27  1  0  0  0  0
  9 28  1  0  0  0  0
 10 29  1  0  0  0  0
 10 30  1  0  0  0  0
 11 31  1  0  0  0  0
 11 32  1  0  0  0  0
 12 15  1  0  0  0  0
 12 33  1  0  0  0  0
 12 34  1  0  0  0  0
 13 35  1  0  0  0  0
 13 36  1  0  0  0  0
 13 37  1  0  0  0  0
 14 16  2  0  0  0  0
 14 17  1  0  0  0  0
 15 16  1  0  0  0  0
 15 38  1  0  0  0  0
 15 39  1  0  0  0  0
 16 18  1  0  0  0  0
 17 19  2  0  0  0  0
 17 41  1  0  0  0  0
 18 20  2  0  0  0  0
 18 42  1  0  0  0  0
 19 20  1  0  0  0  0
 19 43  1  0  0  0  0
M  END
