DB00582
 OpenBabel07062211533D

 39 41  0  0  1  0  0  0  0  0999 V2000
    0.9906   -1.0806   -2.1597 F   0  0  0  0  0  0  0  0  0  0  0  0
   -2.8827   -1.0800   -2.2753 F   0  0  0  0  0  0  0  0  0  0  0  0
    5.1161   -2.2914   -0.1841 F   0  0  0  0  0  0  0  0  0  0  0  0
   -0.2090    0.4609    1.5980 O   0  0  0  0  0  0  0  0  0  0  0  0
    0.7788    2.2986   -0.4546 N   0  0  0  0  0  0  0  0  0  0  0  0
   -2.9183   -0.0554    1.2067 N   0  0  0  0  0  0  0  0  0  0  0  0
    0.4472    3.2759    0.3823 N   0  0  0  0  0  0  0  0  0  0  0  0
    2.5244    3.5697   -0.5297 N   0  0  0  0  0  0  0  0  0  0  0  0
   -5.0421    0.4618    0.1920 N   0  0  0  0  0  0  0  0  0  0  0  0
   -0.0084   -0.0271    0.2640 C   0  0  1  0  0  0  0  0  0  0  0  0
   -1.1281   -1.1014   -0.0388 C   0  0  1  0  0  0  0  0  0  0  0  0
   -0.1564    1.1954   -0.6975 C   0  0  0  0  0  0  0  0  0  0  0  0
    1.3922   -0.6467    0.1389 C   0  0  0  0  0  0  0  0  0  0  0  0
   -1.0381   -2.3570    0.8471 C   0  0  0  0  0  0  0  0  0  0  0  0
   -2.5500   -0.5404    0.0213 C   0  0  0  0  0  0  0  0  0  0  0  0
    1.7866   -1.1327   -1.0828 C   0  0  0  0  0  0  0  0  0  0  0  0
    2.1872   -0.6860    1.2576 C   0  0  0  0  0  0  0  0  0  0  0  0
   -3.3063   -0.5800   -1.1103 C   0  0  0  0  0  0  0  0  0  0  0  0
    3.0586   -1.6946   -1.1931 C   0  0  0  0  0  0  0  0  0  0  0  0
    3.4589   -1.2479    1.1473 C   0  0  0  0  0  0  0  0  0  0  0  0
    1.9982    2.4613   -0.9967 C   0  0  0  0  0  0  0  0  0  0  0  0
    3.8948   -1.7521   -0.0781 C   0  0  0  0  0  0  0  0  0  0  0  0
   -4.5732   -0.0532   -0.9636 C   0  0  0  0  0  0  0  0  0  0  0  0
   -4.1746    0.4293    1.2217 C   0  0  0  0  0  0  0  0  0  0  0  0
    1.5457    4.0300    0.3039 C   0  0  0  0  0  0  0  0  0  0  0  0
   -0.9694   -1.4635   -1.0621 H   0  0  0  0  0  0  0  0  0  0  0  0
   -1.1489    1.6505   -0.5882 H   0  0  0  0  0  0  0  0  0  0  0  0
   -0.0500    0.9216   -1.7525 H   0  0  0  0  0  0  0  0  0  0  0  0
   -1.1309   -2.1068    1.9097 H   0  0  0  0  0  0  0  0  0  0  0  0
   -0.0897   -2.8842    0.7059 H   0  0  0  0  0  0  0  0  0  0  0  0
   -1.8403   -3.0636    0.6041 H   0  0  0  0  0  0  0  0  0  0  0  0
    0.3453    1.2465    1.7384 H   0  0  0  0  0  0  0  0  0  0  0  0
    1.8853   -0.3129    2.2294 H   0  0  0  0  0  0  0  0  0  0  0  0
    3.3981   -2.0867   -2.1471 H   0  0  0  0  0  0  0  0  0  0  0  0
    4.1100   -1.2946    2.0153 H   0  0  0  0  0  0  0  0  0  0  0  0
    2.4542    1.7866   -1.7070 H   0  0  0  0  0  0  0  0  0  0  0  0
   -5.2671   -0.0298   -1.7971 H   0  0  0  0  0  0  0  0  0  0  0  0
   -4.5247    0.8367    2.1622 H   0  0  0  0  0  0  0  0  0  0  0  0
    1.6360    4.9434    0.8727 H   0  0  0  0  0  0  0  0  0  0  0  0
  1 16  1  0  0  0  0
  2 18  1  0  0  0  0
  3 22  1  0  0  0  0
  4 32  1  0  0  0  0
  5  7  1  0  0  0  0
  5 12  1  0  0  0  0
  5 21  2  0  0  0  0
  6 15  2  0  0  0  0
  6 24  1  0  0  0  0
  7 25  1  0  0  0  0
  8 21  1  0  0  0  0
  8 25  2  0  0  0  0
  9 23  1  0  0  0  0
  9 24  2  0  0  0  0
 10  4  1  1  0  0  0
 10 11  1  0  0  0  0
 10 12  1  0  0  0  0
 10 13  1  0  0  0  0
 11 14  1  0  0  0  0
 11 15  1  0  0  0  0
 11 26  1  6  0  0  0
 12 27  1  0  0  0  0
 12 28  1  0  0  0  0
 13 16  2  0  0  0  0
 13 17  1  0  0  0  0
 14 29  1  0  0  0  0
 14 30  1  0  0  0  0
 14 31  1  0  0  0  0
 15 18  1  0  0  0  0
 16 19  1  0  0  0  0
 17 20  2  0  0  0  0
 17 33  1  0  0  0  0
 18 23  2  0  0  0  0
 19 22  2  0  0  0  0
 19 34  1  0  0  0  0
 20 22  1  0  0  0  0
 20 35  1  0  0  0  0
 21 36  1  0  0  0  0
 23 37  1  0  0  0  0
 24 38  1  0  0  0  0
 25 39  1  0  0  0  0
M  END
