DB00291
 OpenBabel07062211533D

 38 38  0  0  0  0  0  0  0  0999 V2000
    4.3119   -3.6984   -0.1414 Cl  0  0  0  0  0  0  0  0  0  0  0  0
    4.1945    3.5423   -1.2941 Cl  0  0  0  0  0  0  0  0  0  0  0  0
   -4.9755   -1.0581   -2.4553 O   0  0  0  0  0  0  0  0  0  0  0  0
   -5.5697    0.9101   -1.4963 O   0  0  0  0  0  0  0  0  0  0  0  0
    2.6644   -0.0114   -0.1362 N   0  0  0  0  0  0  0  0  0  0  0  0
    1.3350    0.0418    0.3322 C   0  0  0  0  0  0  0  0  0  0  0  0
   -2.7005    0.2037    1.7522 C   0  0  0  0  0  0  0  0  0  0  0  0
   -1.2805    0.1469    1.2524 C   0  0  0  0  0  0  0  0  0  0  0  0
   -3.7386    0.5673    0.6808 C   0  0  0  0  0  0  0  0  0  0  0  0
    3.2118   -1.2502   -0.6519 C   0  0  0  0  0  0  0  0  0  0  0  0
    3.4956    1.1759   -0.1209 C   0  0  0  0  0  0  0  0  0  0  0  0
    0.8169    1.2390    0.8259 C   0  0  0  0  0  0  0  0  0  0  0  0
    0.5381   -1.1028    0.3012 C   0  0  0  0  0  0  0  0  0  0  0  0
   -0.4979    1.2919    1.2885 C   0  0  0  0  0  0  0  0  0  0  0  0
   -0.7768   -1.0499    0.7637 C   0  0  0  0  0  0  0  0  0  0  0  0
   -3.8127   -0.4319   -0.4776 C   0  0  0  0  0  0  0  0  0  0  0  0
    3.6467   -2.1675    0.4804 C   0  0  0  0  0  0  0  0  0  0  0  0
    3.1856    2.0741   -1.3081 C   0  0  0  0  0  0  0  0  0  0  0  0
   -4.8644   -0.0892   -1.5098 C   0  0  0  0  0  0  0  0  0  0  0  0
   -2.7656    0.9328    2.5706 H   0  0  0  0  0  0  0  0  0  0  0  0
   -2.9661   -0.7608    2.2046 H   0  0  0  0  0  0  0  0  0  0  0  0
   -3.5180    1.5656    0.2811 H   0  0  0  0  0  0  0  0  0  0  0  0
   -4.7239    0.6385    1.1585 H   0  0  0  0  0  0  0  0  0  0  0  0
    2.5210   -1.7465   -1.3445 H   0  0  0  0  0  0  0  0  0  0  0  0
    4.0908   -1.0285   -1.2729 H   0  0  0  0  0  0  0  0  0  0  0  0
    3.4279    1.7124    0.8333 H   0  0  0  0  0  0  0  0  0  0  0  0
    4.5521    0.8792   -0.1792 H   0  0  0  0  0  0  0  0  0  0  0  0
    1.3828    2.1622    0.8799 H   0  0  0  0  0  0  0  0  0  0  0  0
    0.8779   -2.0620   -0.0729 H   0  0  0  0  0  0  0  0  0  0  0  0
   -0.8935    2.2291    1.6698 H   0  0  0  0  0  0  0  0  0  0  0  0
   -1.3879   -1.9478    0.7372 H   0  0  0  0  0  0  0  0  0  0  0  0
   -2.8576   -0.4674   -1.0111 H   0  0  0  0  0  0  0  0  0  0  0  0
   -4.0398   -1.4286   -0.0828 H   0  0  0  0  0  0  0  0  0  0  0  0
    2.8285   -2.4253    1.1573 H   0  0  0  0  0  0  0  0  0  0  0  0
    4.4299   -1.6931    1.0813 H   0  0  0  0  0  0  0  0  0  0  0  0
    2.1434    2.4021   -1.3314 H   0  0  0  0  0  0  0  0  0  0  0  0
    3.3848    1.5517   -2.2498 H   0  0  0  0  0  0  0  0  0  0  0  0
   -5.6707   -0.8472   -3.1147 H   0  0  0  0  0  0  0  0  0  0  0  0
  1 17  1  0  0  0  0
  2 18  1  0  0  0  0
  3 19  1  0  0  0  0
  3 38  1  0  0  0  0
  4 19  2  0  0  0  0
  5  6  1  0  0  0  0
  5 10  1  0  0  0  0
  5 11  1  0  0  0  0
  6 12  2  0  0  0  0
  6 13  1  0  0  0  0
  7  8  1  0  0  0  0
  7  9  1  0  0  0  0
  7 20  1  0  0  0  0
  7 21  1  0  0  0  0
  8 14  2  0  0  0  0
  8 15  1  0  0  0  0
  9 16  1  0  0  0  0
  9 22  1  0  0  0  0
  9 23  1  0  0  0  0
 10 17  1  0  0  0  0
 10 24  1  0  0  0  0
 10 25  1  0  0  0  0
 11 18  1  0  0  0  0
 11 26  1  0  0  0  0
 11 27  1  0  0  0  0
 12 14  1  0  0  0  0
 12 28  1  0  0  0  0
 13 15  2  0  0  0  0
 13 29  1  0  0  0  0
 14 30  1  0  0  0  0
 15 31  1  0  0  0  0
 16 19  1  0  0  0  0
 16 32  1  0  0  0  0
 16 33  1  0  0  0  0
 17 34  1  0  0  0  0
 17 35  1  0  0  0  0
 18 36  1  0  0  0  0
 18 37  1  0  0  0  0
M  END
