DB00772
 OpenBabel07062211533D

 38 37  0  0  1  0  0  0  0  0999 V2000
    0.2718   -1.6988    1.0469 S   0  0  0  0  0  0  0  0  0  0  0  0
    2.8477   -4.0024    0.4756 S   0  0  0  0  0  0  0  0  0  0  0  0
    2.1820   -2.1703    0.2522 P   0  0  0  0  0  0  0  0  0  0  0  0
    1.5502    1.4061   -0.3630 O   0  0  0  0  0  0  0  0  0  0  0  0
   -3.8421    0.3049    0.4196 O   0  0  0  0  0  0  0  0  0  0  0  0
    3.2355   -1.0604    0.8287 O   0  0  0  0  0  0  0  0  0  0  0  0
    2.1873   -1.6954   -1.3127 O   0  0  0  0  0  0  0  0  0  0  0  0
    1.1245    1.3172    1.8999 O   0  0  0  0  0  0  0  0  0  0  0  0
   -2.5299   -1.1329   -0.8179 O   0  0  0  0  0  0  0  0  0  0  0  0
   -0.1409   -0.0680    0.3358 C   0  0  1  0  0  0  0  0  0  0  0  0
   -1.5270    0.4017    0.7845 C   0  0  0  0  0  0  0  0  0  0  0  0
    0.9079    0.9459    0.7539 C   0  0  0  0  0  0  0  0  0  0  0  0
   -2.6604   -0.2572    0.0262 C   0  0  0  0  0  0  0  0  0  0  0  0
    2.5516    2.4025   -0.1330 C   0  0  0  0  0  0  0  0  0  0  0  0
   -5.0116   -0.1987   -0.2338 C   0  0  0  0  0  0  0  0  0  0  0  0
    3.1626    2.8027   -1.4590 C   0  0  0  0  0  0  0  0  0  0  0  0
   -6.2279    0.5204    0.3094 C   0  0  0  0  0  0  0  0  0  0  0  0
    3.5835   -1.0482    2.2033 C   0  0  0  0  0  0  0  0  0  0  0  0
    1.3933   -2.3751   -2.2708 C   0  0  0  0  0  0  0  0  0  0  0  0
   -0.1210   -0.1726   -0.7547 H   0  0  0  0  0  0  0  0  0  0  0  0
   -1.6758    0.2380    1.8585 H   0  0  0  0  0  0  0  0  0  0  0  0
   -1.6128    1.4806    0.5985 H   0  0  0  0  0  0  0  0  0  0  0  0
    2.0936    3.2770    0.3425 H   0  0  0  0  0  0  0  0  0  0  0  0
    3.3279    1.9957    0.5244 H   0  0  0  0  0  0  0  0  0  0  0  0
   -4.9303   -0.0254   -1.3126 H   0  0  0  0  0  0  0  0  0  0  0  0
   -5.1016   -1.2740   -0.0437 H   0  0  0  0  0  0  0  0  0  0  0  0
    3.9344    3.5647   -1.3201 H   0  0  0  0  0  0  0  0  0  0  0  0
    2.3950    3.1952   -2.1342 H   0  0  0  0  0  0  0  0  0  0  0  0
    3.6080    1.9340   -1.9550 H   0  0  0  0  0  0  0  0  0  0  0  0
   -7.1422    0.1590   -0.1695 H   0  0  0  0  0  0  0  0  0  0  0  0
   -6.1440    1.5994    0.1429 H   0  0  0  0  0  0  0  0  0  0  0  0
   -6.3126    0.3714    1.3910 H   0  0  0  0  0  0  0  0  0  0  0  0
    3.9713   -0.0578    2.4543 H   0  0  0  0  0  0  0  0  0  0  0  0
    4.3635   -1.7901    2.3913 H   0  0  0  0  0  0  0  0  0  0  0  0
    2.7142   -1.2563    2.8316 H   0  0  0  0  0  0  0  0  0  0  0  0
    1.2191   -1.7044   -3.1160 H   0  0  0  0  0  0  0  0  0  0  0  0
    0.4291   -2.6680   -1.8484 H   0  0  0  0  0  0  0  0  0  0  0  0
    1.9260   -3.2603   -2.6265 H   0  0  0  0  0  0  0  0  0  0  0  0
  1  3  1  0  0  0  0
  1 10  1  0  0  0  0
  2  3  2  0  0  0  0
  3  6  1  0  0  0  0
  3  7  1  0  0  0  0
  4 12  1  0  0  0  0
  4 14  1  0  0  0  0
  5 13  1  0  0  0  0
  5 15  1  0  0  0  0
  6 18  1  0  0  0  0
  7 19  1  0  0  0  0
  8 12  2  0  0  0  0
  9 13  2  0  0  0  0
 10 11  1  0  0  0  0
 10 12  1  0  0  0  0
 10 20  1  6  0  0  0
 11 13  1  0  0  0  0
 11 21  1  0  0  0  0
 11 22  1  0  0  0  0
 14 16  1  0  0  0  0
 14 23  1  0  0  0  0
 14 24  1  0  0  0  0
 15 17  1  0  0  0  0
 15 25  1  0  0  0  0
 15 26  1  0  0  0  0
 16 27  1  0  0  0  0
 16 28  1  0  0  0  0
 16 29  1  0  0  0  0
 17 30  1  0  0  0  0
 17 31  1  0  0  0  0
 17 32  1  0  0  0  0
 18 33  1  0  0  0  0
 18 34  1  0  0  0  0
 18 35  1  0  0  0  0
 19 36  1  0  0  0  0
 19 37  1  0  0  0  0
 19 38  1  0  0  0  0
M  END
