DB00423
 OpenBabel07062211533D

 32 32  0  0  1  0  0  0  0  0999 V2000
   -0.7998   -0.0229   -0.9178 O   0  0  0  0  0  0  0  0  0  0  0  0
    1.8024    0.5348   -1.7792 O   0  0  0  0  0  0  0  0  0  0  0  0
    3.9051    0.2001    0.0673 O   0  0  0  0  0  0  0  0  0  0  0  0
   -2.7736    1.9155   -0.6446 O   0  0  0  0  0  0  0  0  0  0  0  0
    5.2083   -1.5141    0.8816 O   0  0  0  0  0  0  0  0  0  0  0  0
    6.0955    0.5647    0.4588 N   0  0  0  0  0  0  0  0  0  0  0  0
    1.5483    0.0991   -0.4417 C   0  0  1  0  0  0  0  0  0  0  0  0
    0.3111   -0.7888   -0.4635 C   0  0  0  0  0  0  0  0  0  0  0  0
    2.7696   -0.6588    0.0660 C   0  0  0  0  0  0  0  0  0  0  0  0
   -2.0273   -0.3543   -0.4827 C   0  0  0  0  0  0  0  0  0  0  0  0
   -3.0344    0.6138   -0.3400 C   0  0  0  0  0  0  0  0  0  0  0  0
   -2.3238   -1.6883   -0.1606 C   0  0  0  0  0  0  0  0  0  0  0  0
   -4.3047    0.2569    0.1127 C   0  0  0  0  0  0  0  0  0  0  0  0
   -3.5939   -2.0452    0.2921 C   0  0  0  0  0  0  0  0  0  0  0  0
   -4.5843   -1.0727    0.4288 C   0  0  0  0  0  0  0  0  0  0  0  0
    5.0770   -0.3550    0.5026 C   0  0  0  0  0  0  0  0  0  0  0  0
   -2.2849    2.7516    0.3845 C   0  0  0  0  0  0  0  0  0  0  0  0
    1.3790    1.0026    0.1550 H   0  0  0  0  0  0  0  0  0  0  0  0
    0.1459   -1.1718    0.5517 H   0  0  0  0  0  0  0  0  0  0  0  0
    0.4555   -1.6260   -1.1568 H   0  0  0  0  0  0  0  0  0  0  0  0
    2.9808   -1.5094   -0.5938 H   0  0  0  0  0  0  0  0  0  0  0  0
    2.5889   -1.0242    1.0836 H   0  0  0  0  0  0  0  0  0  0  0  0
   -1.5903   -2.4816   -0.2766 H   0  0  0  0  0  0  0  0  0  0  0  0
    1.0083    1.0043   -2.0878 H   0  0  0  0  0  0  0  0  0  0  0  0
   -5.0814    1.0090    0.2209 H   0  0  0  0  0  0  0  0  0  0  0  0
   -3.8140   -3.0812    0.5327 H   0  0  0  0  0  0  0  0  0  0  0  0
   -5.5736   -1.3508    0.7799 H   0  0  0  0  0  0  0  0  0  0  0  0
   -1.3292    2.3792    0.7676 H   0  0  0  0  0  0  0  0  0  0  0  0
   -3.0094    2.8239    1.2020 H   0  0  0  0  0  0  0  0  0  0  0  0
   -2.1260    3.7525   -0.0265 H   0  0  0  0  0  0  0  0  0  0  0  0
    5.9370    1.5136    0.1368 H   0  0  0  0  0  0  0  0  0  0  0  0
    7.0377    0.3237    0.7469 H   0  0  0  0  0  0  0  0  0  0  0  0
  1  8  1  0  0  0  0
  1 10  1  0  0  0  0
  2  7  1  0  0  0  0
  2 24  1  0  0  0  0
  3  9  1  0  0  0  0
  3 16  1  0  0  0  0
  4 11  1  0  0  0  0
  4 17  1  0  0  0  0
  5 16  2  0  0  0  0
  6 16  1  0  0  0  0
  6 31  1  0  0  0  0
  6 32  1  0  0  0  0
  7  8  1  0  0  0  0
  7  9  1  0  0  0  0
  7 18  1  1  0  0  0
  8 19  1  0  0  0  0
  8 20  1  0  0  0  0
  9 21  1  0  0  0  0
  9 22  1  0  0  0  0
 10 11  2  0  0  0  0
 10 12  1  0  0  0  0
 11 13  1  0  0  0  0
 12 14  2  0  0  0  0
 12 23  1  0  0  0  0
 13 15  2  0  0  0  0
 13 25  1  0  0  0  0
 14 15  1  0  0  0  0
 14 26  1  0  0  0  0
 15 27  1  0  0  0  0
 17 28  1  0  0  0  0
 17 29  1  0  0  0  0
 17 30  1  0  0  0  0
M  END
