DB00566
 OpenBabel07062211533D

 16 15  0  0  1  0  0  0  0  0999 V2000
   -2.5904    0.6405    0.5485 S   0  0  0  0  0  0  0  0  0  0  0  0
   -0.3825    1.1159   -2.1068 S   0  0  0  0  0  0  0  0  0  0  0  0
    0.1768   -2.0453    0.6857 O   0  0  0  0  0  0  0  0  0  0  0  0
    1.9598    0.6050    1.0761 O   0  0  0  0  0  0  0  0  0  0  0  0
   -1.4981   -1.8867   -0.8399 O   0  0  0  0  0  0  0  0  0  0  0  0
    2.2597    0.2176   -1.1359 O   0  0  0  0  0  0  0  0  0  0  0  0
   -0.8511    0.0713    0.4893 C   0  0  2  0  0  0  0  0  0  0  0  0
    0.0749    0.9829   -0.3380 C   0  0  1  0  0  0  0  0  0  0  0  0
   -0.7918   -1.3687    0.0127 C   0  0  0  0  0  0  0  0  0  0  0  0
    1.5326    0.5661   -0.2152 C   0  0  0  0  0  0  0  0  0  0  0  0
   -0.5313    0.0797    1.5386 H   0  0  0  0  0  0  0  0  0  0  0  0
    0.0211    2.0069    0.0530 H   0  0  0  0  0  0  0  0  0  0  0  0
   -2.3409    1.8379    1.0986 H   0  0  0  0  0  0  0  0  0  0  0  0
   -0.1702   -0.1697   -2.4243 H   0  0  0  0  0  0  0  0  0  0  0  0
    0.2342   -2.9817    0.3991 H   0  0  0  0  0  0  0  0  0  0  0  0
    2.8972    0.3283    1.1587 H   0  0  0  0  0  0  0  0  0  0  0  0
  1  7  1  0  0  0  0
  1 13  1  0  0  0  0
  2  8  1  0  0  0  0
  2 14  1  0  0  0  0
  3  9  1  0  0  0  0
  3 15  1  0  0  0  0
  4 10  1  0  0  0  0
  4 16  1  0  0  0  0
  5  9  2  0  0  0  0
  6 10  2  0  0  0  0
  7  8  1  0  0  0  0
  7  9  1  0  0  0  0
  7 11  1  1  0  0  0
  8 10  1  0  0  0  0
  8 12  1  1  0  0  0
M  END
