DB00486
 OpenBabel07062211533D

 63 65  0  0  1  0  0  0  0  0999 V2000
    2.1931    0.0732   -1.8201 O   0  0  0  0  0  0  0  0  0  0  0  0
    5.5574   -0.7258    3.5176 O   0  0  0  0  0  0  0  0  0  0  0  0
    1.2173    0.7410    2.9072 O   0  0  0  0  0  0  0  0  0  0  0  0
    4.0619   -0.4143   -0.3003 C   0  0  2  0  0  0  0  0  0  0  0  0
    3.1451   -0.3081    0.9425 C   0  0  1  0  0  0  0  0  0  0  0  0
    3.2493   -0.8693   -1.5404 C   0  0  0  0  0  0  0  0  0  0  0  0
    5.2772   -1.2988    0.0318 C   0  0  0  0  0  0  0  0  0  0  0  0
    3.9251    0.3228    2.1078 C   0  0  0  0  0  0  0  0  0  0  0  0
    1.8700    0.4245    0.5821 C   0  0  0  0  0  0  0  0  0  0  0  0
    6.0885   -0.7194    1.1838 C   0  0  0  0  0  0  0  0  0  0  0  0
    1.4825    0.5617   -0.7578 C   0  0  0  0  0  0  0  0  0  0  0  0
    5.2046   -0.4399    2.3740 C   0  0  0  0  0  0  0  0  0  0  0  0
    4.1269   -0.8426   -2.8050 C   0  0  0  0  0  0  0  0  0  0  0  0
    2.6307   -2.2724   -1.4222 C   0  0  0  0  0  0  0  0  0  0  0  0
    1.0136    0.9334    1.5730 C   0  0  0  0  0  0  0  0  0  0  0  0
   -1.7696    2.4811   -0.4658 C   0  0  0  0  0  0  0  0  0  0  0  0
   -0.5138    1.7655   -0.1007 C   0  0  0  0  0  0  0  0  0  0  0  0
    0.3074    1.2436   -1.0959 C   0  0  0  0  0  0  0  0  0  0  0  0
   -0.1643    1.6033    1.2350 C   0  0  0  0  0  0  0  0  0  0  0  0
   -3.0548    1.8535    0.2083 C   0  0  0  0  0  0  0  0  0  0  0  0
   -2.0643    2.5858   -2.0026 C   0  0  0  0  0  0  0  0  0  0  0  0
   -1.6996    3.9676    0.0212 C   0  0  0  0  0  0  0  0  0  0  0  0
   -3.3393    0.4012   -0.2058 C   0  0  0  0  0  0  0  0  0  0  0  0
   -4.6160   -0.1669    0.4259 C   0  0  0  0  0  0  0  0  0  0  0  0
   -4.8922   -1.6212    0.0372 C   0  0  0  0  0  0  0  0  0  0  0  0
   -6.1703   -2.1376    0.6996 C   0  0  0  0  0  0  0  0  0  0  0  0
   -6.4337   -3.5921    0.3433 C   0  0  0  0  0  0  0  0  0  0  0  0
    4.4350    0.5992   -0.5197 H   0  0  0  0  0  0  0  0  0  0  0  0
    2.8516   -1.3217    1.2509 H   0  0  0  0  0  0  0  0  0  0  0  0
    5.9392   -1.3971   -0.8342 H   0  0  0  0  0  0  0  0  0  0  0  0
    4.9439   -2.3084    0.3008 H   0  0  0  0  0  0  0  0  0  0  0  0
    3.3738    0.2901    3.0487 H   0  0  0  0  0  0  0  0  0  0  0  0
    4.1827    1.3682    1.9019 H   0  0  0  0  0  0  0  0  0  0  0  0
    6.5690    0.2200    0.8894 H   0  0  0  0  0  0  0  0  0  0  0  0
    6.8723   -1.4256    1.4774 H   0  0  0  0  0  0  0  0  0  0  0  0
    3.5178   -0.9981   -3.7037 H   0  0  0  0  0  0  0  0  0  0  0  0
    4.6053    0.1360   -2.9265 H   0  0  0  0  0  0  0  0  0  0  0  0
    4.9044   -1.6120   -2.7906 H   0  0  0  0  0  0  0  0  0  0  0  0
    1.9267   -2.3446   -0.5874 H   0  0  0  0  0  0  0  0  0  0  0  0
    2.0494   -2.5111   -2.3210 H   0  0  0  0  0  0  0  0  0  0  0  0
    3.3938   -3.0465   -1.2978 H   0  0  0  0  0  0  0  0  0  0  0  0
    0.0711    1.3349   -2.1513 H   0  0  0  0  0  0  0  0  0  0  0  0
   -0.8082    1.9868    2.0222 H   0  0  0  0  0  0  0  0  0  0  0  0
   -2.9716    1.8982    1.3014 H   0  0  0  0  0  0  0  0  0  0  0  0
   -3.9302    2.4651   -0.0491 H   0  0  0  0  0  0  0  0  0  0  0  0
   -2.1196    1.6052   -2.4861 H   0  0  0  0  0  0  0  0  0  0  0  0
   -1.2891    3.1678   -2.5157 H   0  0  0  0  0  0  0  0  0  0  0  0
   -3.0195    3.0926   -2.1859 H   0  0  0  0  0  0  0  0  0  0  0  0
   -1.6188    4.0363    1.1119 H   0  0  0  0  0  0  0  0  0  0  0  0
   -0.8285    4.4785   -0.4064 H   0  0  0  0  0  0  0  0  0  0  0  0
   -2.5953    4.5268   -0.2736 H   0  0  0  0  0  0  0  0  0  0  0  0
   -3.4422    0.3312   -1.2935 H   0  0  0  0  0  0  0  0  0  0  0  0
   -2.4936   -0.2363    0.0770 H   0  0  0  0  0  0  0  0  0  0  0  0
    0.5062    1.1615    3.4197 H   0  0  0  0  0  0  0  0  0  0  0  0
   -5.4692    0.4557    0.1291 H   0  0  0  0  0  0  0  0  0  0  0  0
   -4.5354   -0.0945    1.5176 H   0  0  0  0  0  0  0  0  0  0  0  0
   -4.9832   -1.6990   -1.0529 H   0  0  0  0  0  0  0  0  0  0  0  0
   -4.0424   -2.2463    0.3365 H   0  0  0  0  0  0  0  0  0  0  0  0
   -6.0893   -2.0448    1.7888 H   0  0  0  0  0  0  0  0  0  0  0  0
   -7.0253   -1.5284    0.3843 H   0  0  0  0  0  0  0  0  0  0  0  0
   -7.3521   -3.9404    0.8262 H   0  0  0  0  0  0  0  0  0  0  0  0
   -6.5503   -3.7161   -0.7380 H   0  0  0  0  0  0  0  0  0  0  0  0
   -5.6108   -4.2328    0.6762 H   0  0  0  0  0  0  0  0  0  0  0  0
  1  6  1  0  0  0  0
  1 11  1  0  0  0  0
  2 12  2  0  0  0  0
  3 15  1  0  0  0  0
  3 54  1  0  0  0  0
  4  5  1  1  0  0  0
  4  6  1  0  0  0  0
  4  7  1  0  0  0  0
  4 28  1  0  0  0  0
  5  8  1  0  0  0  0
  5  9  1  0  0  0  0
  5 29  1  1  0  0  0
  6 13  1  0  0  0  0
  6 14  1  0  0  0  0
  7 10  1  0  0  0  0
  7 30  1  0  0  0  0
  7 31  1  0  0  0  0
  8 12  1  0  0  0  0
  8 32  1  0  0  0  0
  8 33  1  0  0  0  0
  9 11  2  0  0  0  0
  9 15  1  0  0  0  0
 10 12  1  0  0  0  0
 10 34  1  0  0  0  0
 10 35  1  0  0  0  0
 11 18  1  0  0  0  0
 13 36  1  0  0  0  0
 13 37  1  0  0  0  0
 13 38  1  0  0  0  0
 14 39  1  0  0  0  0
 14 40  1  0  0  0  0
 14 41  1  0  0  0  0
 15 19  2  0  0  0  0
 16 17  1  0  0  0  0
 16 20  1  0  0  0  0
 16 21  1  0  0  0  0
 16 22  1  0  0  0  0
 17 18  2  0  0  0  0
 17 19  1  0  0  0  0
 18 42  1  0  0  0  0
 19 43  1  0  0  0  0
 20 23  1  0  0  0  0
 20 44  1  0  0  0  0
 20 45  1  0  0  0  0
 21 46  1  0  0  0  0
 21 47  1  0  0  0  0
 21 48  1  0  0  0  0
 22 49  1  0  0  0  0
 22 50  1  0  0  0  0
 22 51  1  0  0  0  0
 23 24  1  0  0  0  0
 23 52  1  0  0  0  0
 23 53  1  0  0  0  0
 24 25  1  0  0  0  0
 24 55  1  0  0  0  0
 24 56  1  0  0  0  0
 25 26  1  0  0  0  0
 25 57  1  0  0  0  0
 25 58  1  0  0  0  0
 26 27  1  0  0  0  0
 26 59  1  0  0  0  0
 26 60  1  0  0  0  0
 27 61  1  0  0  0  0
 27 62  1  0  0  0  0
 27 63  1  0  0  0  0
M  END
