DB00446
 OpenBabel07062211533D

 32 32  0  0  1  0  0  0  0  0999 V2000
   -5.4822   -2.1124   -0.5787 Cl  0  0  0  0  0  0  0  0  0  0  0  0
   -5.9849    0.3453    0.9173 Cl  0  0  0  0  0  0  0  0  0  0  0  0
   -0.5170   -1.0634   -1.8375 O   0  0  0  0  0  0  0  0  0  0  0  0
   -1.1493    2.4329    0.5889 O   0  0  0  0  0  0  0  0  0  0  0  0
   -3.3952   -1.2360    1.5363 O   0  0  0  0  0  0  0  0  0  0  0  0
    6.1045    0.4425    0.0372 O   0  0  0  0  0  0  0  0  0  0  0  0
    5.6754   -1.4317    1.0966 O   0  0  0  0  0  0  0  0  0  0  0  0
   -2.5358    0.0098   -0.2198 N   0  0  0  0  0  0  0  0  0  0  0  0
    5.3024   -0.4442    0.4183 N   0  0  0  0  0  0  0  0  0  0  0  0
   -1.1610    0.0125    0.2429 C   0  0  1  0  0  0  0  0  0  0  0  0
   -0.2063    0.0321   -0.9702 C   0  0  1  0  0  0  0  0  0  0  0  0
    1.2547   -0.0943   -0.6028 C   0  0  0  0  0  0  0  0  0  0  0  0
   -0.9560    1.1745    1.2220 C   0  0  0  0  0  0  0  0  0  0  0  0
    2.1449    0.8801   -1.0210 C   0  0  0  0  0  0  0  0  0  0  0  0
    1.6725   -1.1823    0.1452 C   0  0  0  0  0  0  0  0  0  0  0  0
   -3.5463   -0.6245    0.4797 C   0  0  0  0  0  0  0  0  0  0  0  0
    3.4928    0.7635   -0.6814 C   0  0  0  0  0  0  0  0  0  0  0  0
    3.0204   -1.2991    0.4849 C   0  0  0  0  0  0  0  0  0  0  0  0
    3.9306   -0.3259    0.0717 C   0  0  0  0  0  0  0  0  0  0  0  0
   -4.8897   -0.4875   -0.1978 C   0  0  0  0  0  0  0  0  0  0  0  0
   -1.0231   -0.9226    0.7994 H   0  0  0  0  0  0  0  0  0  0  0  0
   -0.3717    0.9450   -1.5564 H   0  0  0  0  0  0  0  0  0  0  0  0
    0.0532    1.1553    1.6453 H   0  0  0  0  0  0  0  0  0  0  0  0
   -1.6679    1.1062    2.0522 H   0  0  0  0  0  0  0  0  0  0  0  0
   -2.7622    0.5564   -1.0455 H   0  0  0  0  0  0  0  0  0  0  0  0
    1.8155    1.7333   -1.6068 H   0  0  0  0  0  0  0  0  0  0  0  0
    0.9816   -1.9564    0.4648 H   0  0  0  0  0  0  0  0  0  0  0  0
   -1.4579   -0.9920   -2.0723 H   0  0  0  0  0  0  0  0  0  0  0  0
    4.1731    1.5407   -1.0203 H   0  0  0  0  0  0  0  0  0  0  0  0
    3.3260   -2.1626    1.0701 H   0  0  0  0  0  0  0  0  0  0  0  0
   -1.0028    3.1175    1.2637 H   0  0  0  0  0  0  0  0  0  0  0  0
   -4.8383    0.0873   -1.1259 H   0  0  0  0  0  0  0  0  0  0  0  0
  1 20  1  0  0  0  0
  2 20  1  0  0  0  0
  3 11  1  0  0  0  0
  3 28  1  0  0  0  0
  4 13  1  0  0  0  0
  4 31  1  0  0  0  0
  5 16  2  0  0  0  0
  6  9  1  0  0  0  0
  7  9  2  0  0  0  0
  8 10  1  0  0  0  0
  8 16  1  0  0  0  0
  8 25  1  0  0  0  0
  9 19  1  0  0  0  0
 10 11  1  0  0  0  0
 10 13  1  0  0  0  0
 10 21  1  1  0  0  0
 11 12  1  0  0  0  0
 11 22  1  6  0  0  0
 12 14  2  0  0  0  0
 12 15  1  0  0  0  0
 13 23  1  0  0  0  0
 13 24  1  0  0  0  0
 14 17  1  0  0  0  0
 14 26  1  0  0  0  0
 15 18  2  0  0  0  0
 15 27  1  0  0  0  0
 16 20  1  0  0  0  0
 17 19  2  0  0  0  0
 17 29  1  0  0  0  0
 18 19  1  0  0  0  0
 18 30  1  0  0  0  0
 20 32  1  0  0  0  0
M  END
