DB00998
 OpenBabel07062211533D

 35 37  0  0  1  0  0  0  0  0999 V2000
    5.6716    1.0257   -0.0258 O   0  0  0  0  0  0  0  0  0  0  0  0
    0.4306   -2.5715   -0.1208 N   0  0  0  0  0  0  0  0  0  0  0  0
   -3.6877    1.1787    0.2061 N   0  0  0  0  0  0  0  0  0  0  0  0
    4.0148    2.5996    0.1656 N   0  0  0  0  0  0  0  0  0  0  0  0
   -2.7007    0.1797   -0.2012 C   0  0  1  0  0  0  0  0  0  0  0  0
   -1.2759    0.6437    0.1912 C   0  0  0  0  0  0  0  0  0  0  0  0
   -3.0479   -1.1916    0.4261 C   0  0  0  0  0  0  0  0  0  0  0  0
   -0.2951   -0.4728    0.0584 C   0  0  0  0  0  0  0  0  0  0  0  0
   -2.0828   -2.3004   -0.0383 C   0  0  0  0  0  0  0  0  0  0  0  0
   -0.6865   -1.7927   -0.0228 C   0  0  1  0  0  0  0  0  0  0  0  0
    1.1275   -0.4477    0.0172 C   0  0  0  0  0  0  0  0  0  0  0  0
    1.5557   -1.7750   -0.0970 C   0  0  0  0  0  0  0  0  0  0  0  0
    2.0974    0.5739    0.0677 C   0  0  0  0  0  0  0  0  0  0  0  0
    2.9085   -2.1270   -0.1665 C   0  0  0  0  0  0  0  0  0  0  0  0
    3.4534    0.2345   -0.0003 C   0  0  0  0  0  0  0  0  0  0  0  0
   -3.4314    2.4527   -0.4476 C   0  0  0  0  0  0  0  0  0  0  0  0
    3.8505   -1.0958   -0.1162 C   0  0  0  0  0  0  0  0  0  0  0  0
    4.4581    1.2856    0.0495 C   0  0  0  0  0  0  0  0  0  0  0  0
   -2.7486    0.0542   -1.2924 H   0  0  0  0  0  0  0  0  0  0  0  0
   -1.2570    0.9938    1.2316 H   0  0  0  0  0  0  0  0  0  0  0  0
   -0.9482    1.4724   -0.4471 H   0  0  0  0  0  0  0  0  0  0  0  0
   -4.0742   -1.4836    0.1716 H   0  0  0  0  0  0  0  0  0  0  0  0
   -3.0028   -1.1129    1.5211 H   0  0  0  0  0  0  0  0  0  0  0  0
   -2.3415   -2.6041   -1.0598 H   0  0  0  0  0  0  0  0  0  0  0  0
   -2.1893   -3.1788    0.6074 H   0  0  0  0  0  0  0  0  0  0  0  0
    0.4365   -3.5792   -0.2008 H   0  0  0  0  0  0  0  0  0  0  0  0
   -3.6678    1.3029    1.2178 H   0  0  0  0  0  0  0  0  0  0  0  0
    1.7284    1.5867    0.1573 H   0  0  0  0  0  0  0  0  0  0  0  0
    3.2193   -3.1628   -0.2555 H   0  0  0  0  0  0  0  0  0  0  0  0
   -2.5520    2.9641   -0.0449 H   0  0  0  0  0  0  0  0  0  0  0  0
   -4.2867    3.1143   -0.2737 H   0  0  0  0  0  0  0  0  0  0  0  0
   -3.3281    2.3447   -1.5325 H   0  0  0  0  0  0  0  0  0  0  0  0
    4.9032   -1.3639   -0.1695 H   0  0  0  0  0  0  0  0  0  0  0  0
    3.0515    2.9016    0.2289 H   0  0  0  0  0  0  0  0  0  0  0  0
    4.6968    3.3511    0.1952 H   0  0  0  0  0  0  0  0  0  0  0  0
  1 18  2  0  0  0  0
  2 10  1  0  0  0  0
  2 12  2  0  0  0  0
  2 26  1  0  0  0  0
  3  5  1  0  0  0  0
  3 16  1  0  0  0  0
  3 27  1  0  0  0  0
  4 18  1  0  0  0  0
  4 34  1  0  0  0  0
  4 35  1  0  0  0  0
  5  6  1  0  0  0  0
  5  7  1  0  0  0  0
  5 19  1  6  0  0  0
  6  8  1  0  0  0  0
  6 20  1  0  0  0  0
  6 21  1  0  0  0  0
  7  9  1  0  0  0  0
  7 22  1  0  0  0  0
  7 23  1  0  0  0  0
  8 11  2  0  0  0  0
  9 10  1  0  0  0  0
  9 24  1  0  0  0  0
  9 25  1  0  0  0  0
 10  8  1  6  0  0  0
 11 12  1  0  0  0  0
 11 13  1  0  0  0  0
 12 14  1  0  0  0  0
 13 15  2  0  0  0  0
 13 28  1  0  0  0  0
 14 17  2  0  0  0  0
 14 29  1  0  0  0  0
 15 17  1  0  0  0  0
 15 18  1  0  0  0  0
 16 30  1  0  0  0  0
 16 31  1  0  0  0  0
 16 32  1  0  0  0  0
 17 33  1  0  0  0  0
M  END
