DB00186
 OpenBabel07062211533D

 31 33  0  0  1  0  0  0  0  0999 V2000
   -0.3820   -4.4383   -1.1068 Cl  0  0  0  0  0  0  0  0  0  0  0  0
    1.1057    1.0130    2.6175 Cl  0  0  0  0  0  0  0  0  0  0  0  0
   -1.9349    3.3781   -1.3997 O   0  0  0  0  0  0  0  0  0  0  0  0
   -2.8959    2.9428    1.0054 O   0  0  0  0  0  0  0  0  0  0  0  0
   -2.5936    0.6810    0.9175 N   0  0  0  0  0  0  0  0  0  0  0  0
   -0.2486    1.8457   -0.5736 N   0  0  0  0  0  0  0  0  0  0  0  0
   -0.7444   -0.5438   -0.2109 C   0  0  0  0  0  0  0  0  0  0  0  0
    0.1476    0.6508   -0.2969 C   0  0  0  0  0  0  0  0  0  0  0  0
   -1.9838   -0.5000    0.4471 C   0  0  0  0  0  0  0  0  0  0  0  0
    1.6015    0.4801   -0.0121 C   0  0  0  0  0  0  0  0  0  0  0  0
   -1.6499    2.0852   -0.8700 C   0  0  1  0  0  0  0  0  0  0  0  0
   -0.2654   -1.7670   -0.7079 C   0  0  0  0  0  0  0  0  0  0  0  0
   -2.4057    1.9624    0.4419 C   0  0  0  0  0  0  0  0  0  0  0  0
   -2.6712   -1.6987    0.6892 C   0  0  0  0  0  0  0  0  0  0  0  0
   -0.9846   -2.9438   -0.5027 C   0  0  0  0  0  0  0  0  0  0  0  0
   -2.1781   -2.9125    0.2105 C   0  0  0  0  0  0  0  0  0  0  0  0
    2.1162    0.6245    1.2719 C   0  0  0  0  0  0  0  0  0  0  0  0
    2.4386    0.1672   -1.0785 C   0  0  0  0  0  0  0  0  0  0  0  0
    3.4829    0.4541    1.4923 C   0  0  0  0  0  0  0  0  0  0  0  0
    3.8054   -0.0031   -0.8578 C   0  0  0  0  0  0  0  0  0  0  0  0
    4.3275    0.1404    0.4275 C   0  0  0  0  0  0  0  0  0  0  0  0
   -2.0333    1.3680   -1.6052 H   0  0  0  0  0  0  0  0  0  0  0  0
   -3.2962    0.5692    1.6442 H   0  0  0  0  0  0  0  0  0  0  0  0
    0.6742   -1.8249   -1.2482 H   0  0  0  0  0  0  0  0  0  0  0  0
   -3.6177   -1.6945    1.2259 H   0  0  0  0  0  0  0  0  0  0  0  0
   -2.7425   -3.8230    0.3939 H   0  0  0  0  0  0  0  0  0  0  0  0
    2.0475    0.0623   -2.0872 H   0  0  0  0  0  0  0  0  0  0  0  0
    3.9060    0.5626    2.4878 H   0  0  0  0  0  0  0  0  0  0  0  0
    4.4634   -0.2452   -1.6873 H   0  0  0  0  0  0  0  0  0  0  0  0
    5.3918    0.0084    0.5990 H   0  0  0  0  0  0  0  0  0  0  0  0
   -2.8804    3.3989   -1.6269 H   0  0  0  0  0  0  0  0  0  0  0  0
  1 15  1  0  0  0  0
  2 17  1  0  0  0  0
  3 11  1  0  0  0  0
  3 31  1  0  0  0  0
  4 13  2  0  0  0  0
  5  9  1  0  0  0  0
  5 13  1  0  0  0  0
  5 23  1  0  0  0  0
  6  8  2  0  0  0  0
  6 11  1  0  0  0  0
  7  8  1  0  0  0  0
  7  9  2  0  0  0  0
  7 12  1  0  0  0  0
  8 10  1  0  0  0  0
  9 14  1  0  0  0  0
 10 17  2  0  0  0  0
 10 18  1  0  0  0  0
 11 13  1  0  0  0  0
 11 22  1  6  0  0  0
 12 15  2  0  0  0  0
 12 24  1  0  0  0  0
 14 16  2  0  0  0  0
 14 25  1  0  0  0  0
 15 16  1  0  0  0  0
 16 26  1  0  0  0  0
 17 19  1  0  0  0  0
 18 20  2  0  0  0  0
 18 27  1  0  0  0  0
 19 21  2  0  0  0  0
 19 28  1  0  0  0  0
 20 21  1  0  0  0  0
 20 29  1  0  0  0  0
 21 30  1  0  0  0  0
M  END
