DB00493
 OpenBabel07062211533D

 47 49  0  0  1  0  0  0  0  0999 V2000
   -0.6932   -0.8777    1.4719 S   0  0  0  0  0  0  0  0  0  0  0  0
    3.8699    3.6299   -0.3425 S   0  0  0  0  0  0  0  0  0  0  0  0
    0.1923   -0.3740   -3.0642 O   0  0  0  0  0  0  0  0  0  0  0  0
   -5.2245    0.1355    0.7626 O   0  0  0  0  0  0  0  0  0  0  0  0
   -2.9468    0.0706   -3.2129 O   0  0  0  0  0  0  0  0  0  0  0  0
   -2.6726    2.1267   -2.2501 O   0  0  0  0  0  0  0  0  0  0  0  0
    3.1738   -1.1791   -2.2121 O   0  0  0  0  0  0  0  0  0  0  0  0
    4.5940   -2.4481    0.2424 O   0  0  0  0  0  0  0  0  0  0  0  0
   -6.7396    1.8785    0.8184 O   0  0  0  0  0  0  0  0  0  0  0  0
   -1.1373   -0.6402   -1.1350 N   0  0  0  0  0  0  0  0  0  0  0  0
    1.7778   -1.1559   -0.3251 N   0  0  0  0  0  0  0  0  0  0  0  0
    4.8707   -1.0885    0.4427 N   0  0  0  0  0  0  0  0  0  0  0  0
    5.2023    1.6649    0.6807 N   0  0  0  0  0  0  0  0  0  0  0  0
    5.9775    3.8201    1.2679 N   0  0  0  0  0  0  0  0  0  0  0  0
   -0.7561   -1.6477   -0.1620 C   0  0  1  0  0  0  0  0  0  0  0  0
    0.5816   -1.7431   -0.9279 C   0  0  1  0  0  0  0  0  0  0  0  0
   -0.0998   -0.8227   -1.9803 C   0  0  0  0  0  0  0  0  0  0  0  0
   -2.2456    0.1363   -1.0227 C   0  0  0  0  0  0  0  0  0  0  0  0
   -2.9234    0.2368    0.1455 C   0  0  0  0  0  0  0  0  0  0  0  0
   -2.4587   -0.4166    1.4452 C   0  0  0  0  0  0  0  0  0  0  0  0
   -4.2061    1.0119    0.3284 C   0  0  0  0  0  0  0  0  0  0  0  0
   -2.6385    0.9134   -2.2077 C   0  0  0  0  0  0  0  0  0  0  0  0
    2.9444   -0.9390   -1.0378 C   0  0  0  0  0  0  0  0  0  0  0  0
    4.0394   -0.3272   -0.2028 C   0  0  0  0  0  0  0  0  0  0  0  0
    4.1907    1.1272   -0.0909 C   0  0  0  0  0  0  0  0  0  0  0  0
   -6.4576    0.6981    0.9738 C   0  0  0  0  0  0  0  0  0  0  0  0
    3.3670    2.0349   -0.7228 C   0  0  0  0  0  0  0  0  0  0  0  0
   -7.4329   -0.3450    1.4285 C   0  0  0  0  0  0  0  0  0  0  0  0
    5.1299    2.9763    0.6219 C   0  0  0  0  0  0  0  0  0  0  0  0
    5.5432   -3.2041    0.9783 C   0  0  0  0  0  0  0  0  0  0  0  0
   -1.3693   -2.5546   -0.2243 H   0  0  0  0  0  0  0  0  0  0  0  0
    0.7848   -2.7499   -1.3118 H   0  0  0  0  0  0  0  0  0  0  0  0
   -3.0580   -1.3124    1.6410 H   0  0  0  0  0  0  0  0  0  0  0  0
   -2.6057    0.2744    2.2821 H   0  0  0  0  0  0  0  0  0  0  0  0
    1.7682   -0.8944    0.6580 H   0  0  0  0  0  0  0  0  0  0  0  0
   -4.0478    1.7993    1.0759 H   0  0  0  0  0  0  0  0  0  0  0  0
   -4.5335    1.4930   -0.5982 H   0  0  0  0  0  0  0  0  0  0  0  0
   -3.2155    0.5485   -4.0263 H   0  0  0  0  0  0  0  0  0  0  0  0
    2.5191    1.8582   -1.3697 H   0  0  0  0  0  0  0  0  0  0  0  0
   -7.5392   -1.1126    0.6580 H   0  0  0  0  0  0  0  0  0  0  0  0
   -8.4091    0.1191    1.5965 H   0  0  0  0  0  0  0  0  0  0  0  0
   -7.0906   -0.7868    2.3677 H   0  0  0  0  0  0  0  0  0  0  0  0
    5.3331   -4.2661    0.8264 H   0  0  0  0  0  0  0  0  0  0  0  0
    5.4632   -2.9793    2.0465 H   0  0  0  0  0  0  0  0  0  0  0  0
    6.5565   -2.9921    0.6233 H   0  0  0  0  0  0  0  0  0  0  0  0
    5.8865    4.8281    1.1955 H   0  0  0  0  0  0  0  0  0  0  0  0
    6.7356    3.4756    1.8477 H   0  0  0  0  0  0  0  0  0  0  0  0
  1 15  1  0  0  0  0
  1 20  1  0  0  0  0
  2 27  1  0  0  0  0
  2 29  1  0  0  0  0
  3 17  2  0  0  0  0
  4 21  1  0  0  0  0
  4 26  1  0  0  0  0
  5 22  1  0  0  0  0
  5 38  1  0  0  0  0
  6 22  2  0  0  0  0
  7 23  2  0  0  0  0
  8 12  1  0  0  0  0
  8 30  1  0  0  0  0
  9 26  2  0  0  0  0
 10 15  1  0  0  0  0
 10 17  1  0  0  0  0
 10 18  1  0  0  0  0
 11 16  1  0  0  0  0
 11 23  1  0  0  0  0
 11 35  1  0  0  0  0
 12 24  2  0  0  0  0
 13 25  1  0  0  0  0
 13 29  2  0  0  0  0
 14 29  1  0  0  0  0
 14 46  1  0  0  0  0
 14 47  1  0  0  0  0
 15 16  1  6  0  0  0
 15 31  1  0  0  0  0
 16 17  1  0  0  0  0
 16 32  1  6  0  0  0
 18 19  2  0  0  0  0
 18 22  1  0  0  0  0
 19 20  1  0  0  0  0
 19 21  1  0  0  0  0
 20 33  1  0  0  0  0
 20 34  1  0  0  0  0
 21 36  1  0  0  0  0
 21 37  1  0  0  0  0
 23 24  1  0  0  0  0
 24 25  1  0  0  0  0
 25 27  2  0  0  0  0
 26 28  1  0  0  0  0
 27 39  1  0  0  0  0
 28 40  1  0  0  0  0
 28 41  1  0  0  0  0
 28 42  1  0  0  0  0
 30 43  1  0  0  0  0
 30 44  1  0  0  0  0
 30 45  1  0  0  0  0
M  END
