DB00243
 OpenBabel07062211533D

 64 66  0  0  1  0  0  0  0  0999 V2000
    5.6143    2.0921    1.4189 O   0  0  0  0  0  0  0  0  0  0  0  0
    4.8317   -0.3450    0.3328 O   0  0  0  0  0  0  0  0  0  0  0  0
   -3.4947    2.2377    0.7956 O   0  0  0  0  0  0  0  0  0  0  0  0
    2.7748   -1.8309    1.4763 O   0  0  0  0  0  0  0  0  0  0  0  0
    2.0361    1.8032    0.4925 N   0  0  0  0  0  0  0  0  0  0  0  0
   -0.7180    2.3810   -0.1710 N   0  0  0  0  0  0  0  0  0  0  0  0
   -3.4875    0.4949   -0.7775 N   0  0  0  0  0  0  0  0  0  0  0  0
    0.9284    1.1805    1.2277 C   0  0  0  0  0  0  0  0  0  0  0  0
    1.6354    3.1195   -0.0191 C   0  0  0  0  0  0  0  0  0  0  0  0
   -0.3174    1.0652    0.3426 C   0  0  0  0  0  0  0  0  0  0  0  0
    0.3902    3.0039   -0.9053 C   0  0  0  0  0  0  0  0  0  0  0  0
    3.2229    1.9142    1.3381 C   0  0  0  0  0  0  0  0  0  0  0  0
   -1.9038    2.2686   -1.0180 C   0  0  0  0  0  0  0  0  0  0  0  0
    4.5079    2.0273    0.5143 C   0  0  2  0  0  0  0  0  0  0  0  0
    4.7237    0.8501   -0.4343 C   0  0  0  0  0  0  0  0  0  0  0  0
   -3.0504    1.6890   -0.2078 C   0  0  0  0  0  0  0  0  0  0  0  0
   -4.5310   -0.3468   -0.3242 C   0  0  0  0  0  0  0  0  0  0  0  0
    4.3901   -1.4980   -0.2591 C   0  0  0  0  0  0  0  0  0  0  0  0
   -5.8327    0.1452   -0.2287 C   0  0  0  0  0  0  0  0  0  0  0  0
   -4.2579   -1.6693    0.0263 C   0  0  0  0  0  0  0  0  0  0  0  0
   -6.8611   -0.6849    0.2172 C   0  0  0  0  0  0  0  0  0  0  0  0
   -5.2864   -2.4993    0.4720 C   0  0  0  0  0  0  0  0  0  0  0  0
    3.3595   -2.2411    0.3166 C   0  0  0  0  0  0  0  0  0  0  0  0
   -6.1569    1.5570   -0.5966 C   0  0  0  0  0  0  0  0  0  0  0  0
   -2.8739   -2.2259   -0.0659 C   0  0  0  0  0  0  0  0  0  0  0  0
    4.9802   -1.9281   -1.4477 C   0  0  0  0  0  0  0  0  0  0  0  0
   -6.5880   -2.0072    0.5676 C   0  0  0  0  0  0  0  0  0  0  0  0
    2.9191   -3.4142   -0.2965 C   0  0  0  0  0  0  0  0  0  0  0  0
    4.5396   -3.1011   -2.0606 C   0  0  0  0  0  0  0  0  0  0  0  0
    3.5092   -3.8441   -1.4850 C   0  0  0  0  0  0  0  0  0  0  0  0
    1.7284   -2.6472    1.9988 C   0  0  0  0  0  0  0  0  0  0  0  0
    0.6876    1.7596    2.1298 H   0  0  0  0  0  0  0  0  0  0  0  0
    1.2066    0.1759    1.5551 H   0  0  0  0  0  0  0  0  0  0  0  0
    2.4349    3.5565   -0.6272 H   0  0  0  0  0  0  0  0  0  0  0  0
    1.4338    3.8173    0.8051 H   0  0  0  0  0  0  0  0  0  0  0  0
   -1.1040    0.6268    0.9664 H   0  0  0  0  0  0  0  0  0  0  0  0
   -0.1213    0.3645   -0.4806 H   0  0  0  0  0  0  0  0  0  0  0  0
    0.6337    2.4295   -1.8094 H   0  0  0  0  0  0  0  0  0  0  0  0
    0.1007    4.0118   -1.2269 H   0  0  0  0  0  0  0  0  0  0  0  0
    3.1477    2.7553    2.0408 H   0  0  0  0  0  0  0  0  0  0  0  0
    3.3189    1.0283    1.9812 H   0  0  0  0  0  0  0  0  0  0  0  0
   -2.2304    3.2622   -1.3493 H   0  0  0  0  0  0  0  0  0  0  0  0
   -1.7020    1.6790   -1.9206 H   0  0  0  0  0  0  0  0  0  0  0  0
    4.5124    2.9609   -0.0580 H   0  0  0  0  0  0  0  0  0  0  0  0
    3.9110    0.7891   -1.1686 H   0  0  0  0  0  0  0  0  0  0  0  0
    5.6681    0.9832   -0.9748 H   0  0  0  0  0  0  0  0  0  0  0  0
    6.4222    2.1926    0.8870 H   0  0  0  0  0  0  0  0  0  0  0  0
   -2.7946    0.0171   -1.3499 H   0  0  0  0  0  0  0  0  0  0  0  0
   -7.8800   -0.3155    0.2994 H   0  0  0  0  0  0  0  0  0  0  0  0
   -5.0919   -3.5321    0.7486 H   0  0  0  0  0  0  0  0  0  0  0  0
   -5.9906    2.2257    0.2525 H   0  0  0  0  0  0  0  0  0  0  0  0
   -7.2107    1.6487   -0.8853 H   0  0  0  0  0  0  0  0  0  0  0  0
   -5.5815    1.9024   -1.4613 H   0  0  0  0  0  0  0  0  0  0  0  0
   -2.5387   -2.2509   -1.1079 H   0  0  0  0  0  0  0  0  0  0  0  0
   -2.1757   -1.6269    0.5274 H   0  0  0  0  0  0  0  0  0  0  0  0
   -2.8217   -3.2506    0.3182 H   0  0  0  0  0  0  0  0  0  0  0  0
    5.7894   -1.3641   -1.9035 H   0  0  0  0  0  0  0  0  0  0  0  0
   -7.3888   -2.6534    0.9152 H   0  0  0  0  0  0  0  0  0  0  0  0
    2.1238   -4.0409    0.0924 H   0  0  0  0  0  0  0  0  0  0  0  0
    5.0002   -3.4370   -2.9851 H   0  0  0  0  0  0  0  0  0  0  0  0
    3.1671   -4.7576   -1.9631 H   0  0  0  0  0  0  0  0  0  0  0  0
    1.3817   -2.1740    2.9235 H   0  0  0  0  0  0  0  0  0  0  0  0
    2.0909   -3.6448    2.2692 H   0  0  0  0  0  0  0  0  0  0  0  0
    0.8694   -2.6847    1.3199 H   0  0  0  0  0  0  0  0  0  0  0  0
  1 14  1  0  0  0  0
  1 47  1  0  0  0  0
  2 15  1  0  0  0  0
  2 18  1  0  0  0  0
  3 16  2  0  0  0  0
  4 23  1  0  0  0  0
  4 31  1  0  0  0  0
  5  8  1  0  0  0  0
  5  9  1  0  0  0  0
  5 12  1  0  0  0  0
  6 10  1  0  0  0  0
  6 11  1  0  0  0  0
  6 13  1  0  0  0  0
  7 16  1  0  0  0  0
  7 17  1  0  0  0  0
  7 48  1  0  0  0  0
  8 10  1  0  0  0  0
  8 32  1  0  0  0  0
  8 33  1  0  0  0  0
  9 11  1  0  0  0  0
  9 34  1  0  0  0  0
  9 35  1  0  0  0  0
 10 36  1  0  0  0  0
 10 37  1  0  0  0  0
 11 38  1  0  0  0  0
 11 39  1  0  0  0  0
 12 14  1  0  0  0  0
 12 40  1  0  0  0  0
 12 41  1  0  0  0  0
 13 16  1  0  0  0  0
 13 42  1  0  0  0  0
 13 43  1  0  0  0  0
 14 15  1  0  0  0  0
 14 44  1  6  0  0  0
 15 45  1  0  0  0  0
 15 46  1  0  0  0  0
 17 19  2  0  0  0  0
 17 20  1  0  0  0  0
 18 23  2  0  0  0  0
 18 26  1  0  0  0  0
 19 21  1  0  0  0  0
 19 24  1  0  0  0  0
 20 22  2  0  0  0  0
 20 25  1  0  0  0  0
 21 27  2  0  0  0  0
 21 49  1  0  0  0  0
 22 27  1  0  0  0  0
 22 50  1  0  0  0  0
 23 28  1  0  0  0  0
 24 51  1  0  0  0  0
 24 52  1  0  0  0  0
 24 53  1  0  0  0  0
 25 54  1  0  0  0  0
 25 55  1  0  0  0  0
 25 56  1  0  0  0  0
 26 29  2  0  0  0  0
 26 57  1  0  0  0  0
 27 58  1  0  0  0  0
 28 30  2  0  0  0  0
 28 59  1  0  0  0  0
 29 30  1  0  0  0  0
 29 60  1  0  0  0  0
 30 61  1  0  0  0  0
 31 62  1  0  0  0  0
 31 63  1  0  0  0  0
 31 64  1  0  0  0  0
M  END
