DB00525
 OpenBabel07062211533D

 39 41  0  0  0  0  0  0  0  0999 V2000
    2.2671   -2.9257   -2.7537 S   0  0  0  0  0  0  0  0  0  0  0  0
    0.6277   -1.0129   -2.0011 O   0  0  0  0  0  0  0  0  0  0  0  0
    2.2940   -1.5794   -0.3370 N   0  0  0  0  0  0  0  0  0  0  0  0
   -2.5423    0.2389   -0.6316 C   0  0  0  0  0  0  0  0  0  0  0  0
   -2.9833   -0.9018    0.0806 C   0  0  0  0  0  0  0  0  0  0  0  0
    2.2625   -0.2739    0.2831 C   0  0  0  0  0  0  0  0  0  0  0  0
   -0.5508   -0.9766   -1.3214 C   0  0  0  0  0  0  0  0  0  0  0  0
   -1.3237    0.1850   -1.3277 C   0  0  0  0  0  0  0  0  0  0  0  0
    2.2804    0.8297   -0.5291 C   0  0  0  0  0  0  0  0  0  0  0  0
    2.2498    2.0890    0.0699 C   0  0  0  0  0  0  0  0  0  0  0  0
   -2.1928   -2.0627    0.0757 C   0  0  0  0  0  0  0  0  0  0  0  0
   -0.9847   -2.0984   -0.6212 C   0  0  0  0  0  0  0  0  0  0  0  0
   -3.3330    1.3996   -0.6270 C   0  0  0  0  0  0  0  0  0  0  0  0
    2.2156   -0.2093    1.6511 C   0  0  0  0  0  0  0  0  0  0  0  0
   -4.2019   -0.8482    0.7766 C   0  0  0  0  0  0  0  0  0  0  0  0
    1.7444   -1.8191   -1.6078 C   0  0  0  0  0  0  0  0  0  0  0  0
    2.2019    2.1991    1.4596 C   0  0  0  0  0  0  0  0  0  0  0  0
    2.1847    1.0501    2.2501 C   0  0  0  0  0  0  0  0  0  0  0  0
    2.8635   -2.6813    0.4489 C   0  0  0  0  0  0  0  0  0  0  0  0
   -4.5411    1.4351    0.0702 C   0  0  0  0  0  0  0  0  0  0  0  0
   -4.9746    0.3134    0.7706 C   0  0  0  0  0  0  0  0  0  0  0  0
    2.2685    3.3173   -0.7755 C   0  0  0  0  0  0  0  0  0  0  0  0
   -0.9696    1.0538   -1.8799 H   0  0  0  0  0  0  0  0  0  0  0  0
    2.3541    0.7641   -1.6100 H   0  0  0  0  0  0  0  0  0  0  0  0
   -2.5136   -2.9519    0.6145 H   0  0  0  0  0  0  0  0  0  0  0  0
   -0.4090   -3.0192   -0.6079 H   0  0  0  0  0  0  0  0  0  0  0  0
   -3.0136    2.2882   -1.1674 H   0  0  0  0  0  0  0  0  0  0  0  0
    2.1820   -1.0774    2.2992 H   0  0  0  0  0  0  0  0  0  0  0  0
   -4.5605   -1.7131    1.3308 H   0  0  0  0  0  0  0  0  0  0  0  0
    2.1745    3.1739    1.9394 H   0  0  0  0  0  0  0  0  0  0  0  0
    2.1422    1.1364    3.3321 H   0  0  0  0  0  0  0  0  0  0  0  0
    2.1315   -3.0009    1.1975 H   0  0  0  0  0  0  0  0  0  0  0  0
    3.7946   -2.3611    0.9272 H   0  0  0  0  0  0  0  0  0  0  0  0
    3.0874   -3.5531   -0.1693 H   0  0  0  0  0  0  0  0  0  0  0  0
   -5.1430    2.3392    0.0660 H   0  0  0  0  0  0  0  0  0  0  0  0
   -5.9151    0.3417    1.3132 H   0  0  0  0  0  0  0  0  0  0  0  0
    2.9591    3.1998   -1.6173 H   0  0  0  0  0  0  0  0  0  0  0  0
    1.2658    3.5196   -1.1653 H   0  0  0  0  0  0  0  0  0  0  0  0
    2.6014    4.1918   -0.2063 H   0  0  0  0  0  0  0  0  0  0  0  0
  1 16  2  0  0  0  0
  2  7  1  0  0  0  0
  2 16  1  0  0  0  0
  3  6  1  0  0  0  0
  3 16  1  0  0  0  0
  3 19  1  0  0  0  0
  4  5  2  0  0  0  0
  4  8  1  0  0  0  0
  4 13  1  0  0  0  0
  5 11  1  0  0  0  0
  5 15  1  0  0  0  0
  6  9  2  0  0  0  0
  6 14  1  0  0  0  0
  7  8  2  0  0  0  0
  7 12  1  0  0  0  0
  8 23  1  0  0  0  0
  9 10  1  0  0  0  0
  9 24  1  0  0  0  0
 10 17  2  0  0  0  0
 10 22  1  0  0  0  0
 11 12  2  0  0  0  0
 11 25  1  0  0  0  0
 12 26  1  0  0  0  0
 13 20  2  0  0  0  0
 13 27  1  0  0  0  0
 14 18  2  0  0  0  0
 14 28  1  0  0  0  0
 15 21  2  0  0  0  0
 15 29  1  0  0  0  0
 17 18  1  0  0  0  0
 17 30  1  0  0  0  0
 18 31  1  0  0  0  0
 19 32  1  0  0  0  0
 19 33  1  0  0  0  0
 19 34  1  0  0  0  0
 20 21  1  0  0  0  0
 20 35  1  0  0  0  0
 21 36  1  0  0  0  0
 22 37  1  0  0  0  0
 22 38  1  0  0  0  0
 22 39  1  0  0  0  0
M  END
