DB00663
 OpenBabel07062211533D

 57 60  0  0  1  0  0  0  0  0999 V2000
    1.6604   -0.0381    1.5664 F   0  0  0  0  0  0  0  0  0  0  0  0
    3.4346   -3.2618   -0.7318 F   0  0  0  0  0  0  0  0  0  0  0  0
   -2.7031    0.1071    2.0191 O   0  0  0  0  0  0  0  0  0  0  0  0
    0.9660    2.4865   -0.8905 O   0  0  0  0  0  0  0  0  0  0  0  0
   -3.7010    2.3101    0.2686 O   0  0  0  0  0  0  0  0  0  0  0  0
   -6.2336    1.4623   -0.0249 O   0  0  0  0  0  0  0  0  0  0  0  0
    6.4625   -0.6325    2.0917 O   0  0  0  0  0  0  0  0  0  0  0  0
   -1.3956    0.6067   -0.0333 C   0  0  1  0  0  0  0  0  0  0  0  0
   -0.6225   -0.7270    0.0554 C   0  0  2  0  0  0  0  0  0  0  0  0
    0.7960   -0.6602   -0.5335 C   0  0  1  0  0  0  0  0  0  0  0  0
    1.6254    0.4114    0.2535 C   0  0  1  0  0  0  0  0  0  0  0  0
   -2.7470    0.1527    0.5983 C   0  0  1  0  0  0  0  0  0  0  0  0
   -1.6073   -1.7541   -0.5023 C   0  0  0  0  0  0  0  0  0  0  0  0
   -0.5985    1.6607    0.7630 C   0  0  0  0  0  0  0  0  0  0  0  0
   -3.0007   -1.2456   -0.0440 C   0  0  1  0  0  0  0  0  0  0  0  0
    0.8829    1.7801    0.3388 C   0  0  2  0  0  0  0  0  0  0  0  0
    3.1354    0.4606   -0.2093 C   0  0  1  0  0  0  0  0  0  0  0  0
    1.4675   -2.0423   -0.4616 C   0  0  0  0  0  0  0  0  0  0  0  0
   -1.6158    1.0906   -1.4925 C   0  0  0  0  0  0  0  0  0  0  0  0
    2.9225   -2.0083   -0.9069 C   0  0  1  0  0  0  0  0  0  0  0  0
    3.6887   -0.9692   -0.1266 C   0  0  0  0  0  0  0  0  0  0  0  0
   -3.8843    1.0966    0.3524 C   0  0  0  0  0  0  0  0  0  0  0  0
   -3.7077   -2.2499    0.8612 C   0  0  0  0  0  0  0  0  0  0  0  0
    3.3306    0.9679   -1.6563 C   0  0  0  0  0  0  0  0  0  0  0  0
    3.9235    1.4095    0.6824 C   0  0  0  0  0  0  0  0  0  0  0  0
    4.7543   -1.3105    0.6152 C   0  0  0  0  0  0  0  0  0  0  0  0
   -5.2564    0.4719    0.2157 C   0  0  0  0  0  0  0  0  0  0  0  0
    4.9831    1.0730    1.4237 C   0  0  0  0  0  0  0  0  0  0  0  0
    5.4809   -0.3143    1.4289 C   0  0  0  0  0  0  0  0  0  0  0  0
   -0.5015   -0.9837    1.1209 H   0  0  0  0  0  0  0  0  0  0  0  0
    0.7423   -0.3791   -1.5899 H   0  0  0  0  0  0  0  0  0  0  0  0
   -1.5568   -1.7896   -1.5971 H   0  0  0  0  0  0  0  0  0  0  0  0
   -1.3884   -2.7615   -0.1322 H   0  0  0  0  0  0  0  0  0  0  0  0
   -0.5931    1.3981    1.8275 H   0  0  0  0  0  0  0  0  0  0  0  0
   -1.0880    2.6384    0.6825 H   0  0  0  0  0  0  0  0  0  0  0  0
   -3.5802   -1.1635   -0.9703 H   0  0  0  0  0  0  0  0  0  0  0  0
    1.3732    2.4016    1.0968 H   0  0  0  0  0  0  0  0  0  0  0  0
    0.9288   -2.7618   -1.0900 H   0  0  0  0  0  0  0  0  0  0  0  0
    1.4117   -2.4415    0.5602 H   0  0  0  0  0  0  0  0  0  0  0  0
   -0.6954    1.0935   -2.0804 H   0  0  0  0  0  0  0  0  0  0  0  0
   -2.3273    0.4677   -2.0436 H   0  0  0  0  0  0  0  0  0  0  0  0
   -1.9994    2.1159   -1.5195 H   0  0  0  0  0  0  0  0  0  0  0  0
    2.9885   -1.7963   -1.9789 H   0  0  0  0  0  0  0  0  0  0  0  0
   -3.1164   -2.4570    1.7598 H   0  0  0  0  0  0  0  0  0  0  0  0
   -4.6988   -1.9284    1.1797 H   0  0  0  0  0  0  0  0  0  0  0  0
   -3.8344   -3.2023    0.3339 H   0  0  0  0  0  0  0  0  0  0  0  0
    4.3488    0.7626   -2.0123 H   0  0  0  0  0  0  0  0  0  0  0  0
    2.6433    0.4962   -2.3647 H   0  0  0  0  0  0  0  0  0  0  0  0
    3.1932    2.0513   -1.7410 H   0  0  0  0  0  0  0  0  0  0  0  0
   -2.5773    1.0085    2.3602 H   0  0  0  0  0  0  0  0  0  0  0  0
    3.6182    2.4534    0.6994 H   0  0  0  0  0  0  0  0  0  0  0  0
    0.5372    3.3502   -0.7668 H   0  0  0  0  0  0  0  0  0  0  0  0
    5.1182   -2.3313    0.6618 H   0  0  0  0  0  0  0  0  0  0  0  0
   -5.5249   -0.0027    1.1609 H   0  0  0  0  0  0  0  0  0  0  0  0
   -5.3231   -0.2344   -0.6100 H   0  0  0  0  0  0  0  0  0  0  0  0
    5.5059    1.8063    2.0265 H   0  0  0  0  0  0  0  0  0  0  0  0
   -6.0448    1.8551   -0.8943 H   0  0  0  0  0  0  0  0  0  0  0  0
  1 11  1  0  0  0  0
  2 20  1  0  0  0  0
  3 12  1  0  0  0  0
  3 50  1  0  0  0  0
  4 16  1  0  0  0  0
  4 52  1  0  0  0  0
  5 22  2  0  0  0  0
  6 27  1  0  0  0  0
  6 57  1  0  0  0  0
  7 29  2  0  0  0  0
  8  9  1  6  0  0  0
  8 14  1  0  0  0  0
  8 19  1  0  0  0  0
  9 10  1  6  0  0  0
  9 13  1  0  0  0  0
  9 30  1  0  0  0  0
 10 11  1  1  0  0  0
 10 18  1  0  0  0  0
 10 31  1  0  0  0  0
 11 16  1  6  0  0  0
 12  8  1  6  0  0  0
 12 22  1  0  0  0  0
 13 15  1  0  0  0  0
 13 32  1  0  0  0  0
 13 33  1  0  0  0  0
 14 16  1  0  0  0  0
 14 34  1  0  0  0  0
 14 35  1  0  0  0  0
 15 12  1  1  0  0  0
 15 23  1  0  0  0  0
 15 36  1  0  0  0  0
 16 37  1  1  0  0  0
 17 11  1  1  0  0  0
 17 21  1  0  0  0  0
 17 24  1  0  0  0  0
 17 25  1  0  0  0  0
 18 20  1  0  0  0  0
 18 38  1  0  0  0  0
 18 39  1  0  0  0  0
 19 40  1  0  0  0  0
 19 41  1  0  0  0  0
 19 42  1  0  0  0  0
 20 21  1  0  0  0  0
 20 43  1  6  0  0  0
 21 26  2  0  0  0  0
 22 27  1  0  0  0  0
 23 44  1  0  0  0  0
 23 45  1  0  0  0  0
 23 46  1  0  0  0  0
 24 47  1  0  0  0  0
 24 48  1  0  0  0  0
 24 49  1  0  0  0  0
 25 28  2  0  0  0  0
 25 51  1  0  0  0  0
 26 29  1  0  0  0  0
 26 53  1  0  0  0  0
 27 54  1  0  0  0  0
 27 55  1  0  0  0  0
 28 29  1  0  0  0  0
 28 56  1  0  0  0  0
M  END
