DB00703
 OpenBabel07062211533D

 22 22  0  0  0  0  0  0  0  0999 V2000
   -2.9172    0.9863   -0.6886 S   0  0  0  0  0  0  0  0  0  0  0  0
    0.0357    1.1418    0.0840 S   0  0  0  0  0  0  0  0  0  0  0  0
   -2.5865    2.3220   -1.1494 O   0  0  0  0  0  0  0  0  0  0  0  0
   -3.6306    0.0427   -1.5295 O   0  0  0  0  0  0  0  0  0  0  0  0
    2.7940    1.3628    1.9117 O   0  0  0  0  0  0  0  0  0  0  0  0
   -0.0232   -1.4113   -0.0681 N   0  0  0  0  0  0  0  0  0  0  0  0
   -1.3118   -1.0608   -0.3775 N   0  0  0  0  0  0  0  0  0  0  0  0
   -3.6816    1.0805    0.8347 N   0  0  0  0  0  0  0  0  0  0  0  0
    2.1011   -0.4352    0.5937 N   0  0  0  0  0  0  0  0  0  0  0  0
   -1.3985    0.2313   -0.3351 C   0  0  0  0  0  0  0  0  0  0  0  0
    0.8638   -0.4040    0.2398 C   0  0  0  0  0  0  0  0  0  0  0  0
    0.2851   -2.8232   -0.0279 C   0  0  0  0  0  0  0  0  0  0  0  0
    2.7274    0.7689    0.8370 C   0  0  0  0  0  0  0  0  0  0  0  0
    3.3716    1.3391   -0.3994 C   0  0  0  0  0  0  0  0  0  0  0  0
    0.2622   -3.1842    1.0050 H   0  0  0  0  0  0  0  0  0  0  0  0
    1.2806   -3.0147   -0.4413 H   0  0  0  0  0  0  0  0  0  0  0  0
   -0.4351   -3.4057   -0.6125 H   0  0  0  0  0  0  0  0  0  0  0  0
   -4.3906    1.8150    0.9551 H   0  0  0  0  0  0  0  0  0  0  0  0
   -3.9552    0.1927    1.2753 H   0  0  0  0  0  0  0  0  0  0  0  0
    2.9588    0.9004   -1.3122 H   0  0  0  0  0  0  0  0  0  0  0  0
    3.2047    2.4195   -0.4301 H   0  0  0  0  0  0  0  0  0  0  0  0
    4.4453    1.1361   -0.3648 H   0  0  0  0  0  0  0  0  0  0  0  0
  1  3  2  0  0  0  0
  1  4  2  0  0  0  0
  1  8  1  0  0  0  0
  1 10  1  0  0  0  0
  2 10  1  0  0  0  0
  2 11  1  0  0  0  0
  5 13  2  0  0  0  0
  6  7  1  0  0  0  0
  6 11  1  0  0  0  0
  6 12  1  0  0  0  0
  7 10  2  0  0  0  0
  8 18  1  0  0  0  0
  8 19  1  0  0  0  0
  9 11  2  0  0  0  0
  9 13  1  0  0  0  0
 12 15  1  0  0  0  0
 12 16  1  0  0  0  0
 12 17  1  0  0  0  0
 13 14  1  0  0  0  0
 14 20  1  0  0  0  0
 14 21  1  0  0  0  0
 14 22  1  0  0  0  0
M  END
