DB00943
 OpenBabel07062211533D

 28 29  0  0  1  0  0  0  0  0999 V2000
   -1.2333   -0.0744   -1.2058 O   0  0  0  0  0  0  0  0  0  0  0  0
   -2.3611    2.4638   -0.8123 O   0  0  0  0  0  0  0  0  0  0  0  0
    1.7390   -2.8202   -0.5765 O   0  0  0  0  0  0  0  0  0  0  0  0
    0.8559   -0.6999   -0.3551 N   0  0  0  0  0  0  0  0  0  0  0  0
    3.2200   -1.1438   -0.1922 N   0  0  0  0  0  0  0  0  0  0  0  0
    4.7321    0.5783    0.2035 N   0  0  0  0  0  0  0  0  0  0  0  0
   -0.5015   -1.1174   -0.5464 C   0  0  1  0  0  0  0  0  0  0  0  0
   -1.2194   -1.4046    0.7581 C   0  0  0  0  0  0  0  0  0  0  0  0
   -2.6506   -1.0861    0.4029 C   0  0  0  0  0  0  0  0  0  0  0  0
   -2.5042    0.0878   -0.5524 C   0  0  1  0  0  0  0  0  0  0  0  0
   -2.5130    1.4365    0.1547 C   0  0  0  0  0  0  0  0  0  0  0  0
    1.1118    0.6435   -0.1348 C   0  0  0  0  0  0  0  0  0  0  0  0
    1.9338   -1.6186   -0.3845 C   0  0  0  0  0  0  0  0  0  0  0  0
    2.3410    1.1198    0.0535 C   0  0  0  0  0  0  0  0  0  0  0  0
    3.4463    0.1271    0.0145 C   0  0  0  0  0  0  0  0  0  0  0  0
   -0.5330   -1.9994   -1.1970 H   0  0  0  0  0  0  0  0  0  0  0  0
   -0.8807   -0.7399    1.5622 H   0  0  0  0  0  0  0  0  0  0  0  0
   -1.0757   -2.4335    1.1009 H   0  0  0  0  0  0  0  0  0  0  0  0
   -3.0871   -1.9395   -0.1307 H   0  0  0  0  0  0  0  0  0  0  0  0
   -3.2808   -0.8757    1.2715 H   0  0  0  0  0  0  0  0  0  0  0  0
   -3.2806    0.0733   -1.3252 H   0  0  0  0  0  0  0  0  0  0  0  0
   -1.7020    1.5289    0.8820 H   0  0  0  0  0  0  0  0  0  0  0  0
   -3.4651    1.5901    0.6730 H   0  0  0  0  0  0  0  0  0  0  0  0
    0.2798    1.3320   -0.1080 H   0  0  0  0  0  0  0  0  0  0  0  0
    2.5496    2.1666    0.2291 H   0  0  0  0  0  0  0  0  0  0  0  0
   -2.3784    3.3109   -0.3351 H   0  0  0  0  0  0  0  0  0  0  0  0
    4.9400    1.5581    0.3654 H   0  0  0  0  0  0  0  0  0  0  0  0
    5.5171   -0.0639    0.1845 H   0  0  0  0  0  0  0  0  0  0  0  0
  1  7  1  0  0  0  0
  1 10  1  0  0  0  0
  2 11  1  0  0  0  0
  2 26  1  0  0  0  0
  3 13  2  0  0  0  0
  4  7  1  0  0  0  0
  4 12  1  0  0  0  0
  4 13  1  0  0  0  0
  5 13  1  0  0  0  0
  5 15  2  0  0  0  0
  6 15  1  0  0  0  0
  6 27  1  0  0  0  0
  6 28  1  0  0  0  0
  7  8  1  0  0  0  0
  7 16  1  6  0  0  0
  8  9  1  0  0  0  0
  8 17  1  0  0  0  0
  8 18  1  0  0  0  0
  9 10  1  0  0  0  0
  9 19  1  0  0  0  0
  9 20  1  0  0  0  0
 10 11  1  0  0  0  0
 10 21  1  6  0  0  0
 11 22  1  0  0  0  0
 11 23  1  0  0  0  0
 12 14  2  0  0  0  0
 12 24  1  0  0  0  0
 14 15  1  0  0  0  0
 14 25  1  0  0  0  0
M  END
