DB00406
 OpenBabel07062211533D

 58 60  0  0  0  0  0  0  0  0999 V2000
    4.9853   -2.7070   -0.0435 N   0  0  0  0  0  0  0  0  0  0  0  0
   -4.9749   -2.7236    0.0445 N   0  0  0  0  0  0  0  0  0  0  0  0
   -0.0109    5.4178    0.0003 N   0  0  0  0  0  0  0  0  0  0  0  0
    0.0007   -0.0376   -0.0012 C   0  0  0  0  0  0  0  0  0  0  0  0
    1.3112   -0.7396   -0.0125 C   0  0  0  0  0  0  0  0  0  0  0  0
   -1.3071   -0.7438    0.0110 C   0  0  0  0  0  0  0  0  0  0  0  0
   -0.0022    1.3058   -0.0013 C   0  0  0  0  0  0  0  0  0  0  0  0
    1.8868   -1.0546   -1.2253 C   0  0  0  0  0  0  0  0  0  0  0  0
   -1.8818   -1.0593    1.2243 C   0  0  0  0  0  0  0  0  0  0  0  0
    1.9082   -1.0526    1.1905 C   0  0  0  0  0  0  0  0  0  0  0  0
   -1.9033   -1.0605   -1.1915 C   0  0  0  0  0  0  0  0  0  0  0  0
    1.2540    2.0401   -0.0119 C   0  0  0  0  0  0  0  0  0  0  0  0
   -1.2614    2.0348    0.0095 C   0  0  0  0  0  0  0  0  0  0  0  0
    3.7420   -2.0414   -0.0331 C   0  0  0  0  0  0  0  0  0  0  0  0
   -3.7337   -2.0538    0.0333 C   0  0  0  0  0  0  0  0  0  0  0  0
   -0.0081    4.1338    0.0002 C   0  0  0  0  0  0  0  0  0  0  0  0
    3.1164   -1.7131   -1.2357 C   0  0  0  0  0  0  0  0  0  0  0  0
   -3.1092   -1.7219    1.2356 C   0  0  0  0  0  0  0  0  0  0  0  0
    3.1379   -1.7112    1.1801 C   0  0  0  0  0  0  0  0  0  0  0  0
   -3.1308   -1.7230   -1.1803 C   0  0  0  0  0  0  0  0  0  0  0  0
    1.2735    3.3800   -0.0110 C   0  0  0  0  0  0  0  0  0  0  0  0
   -1.2865    3.3747    0.0105 C   0  0  0  0  0  0  0  0  0  0  0  0
    5.9425   -2.4909    1.0234 C   0  0  0  0  0  0  0  0  0  0  0  0
    5.3279   -3.6051   -1.1282 C   0  0  0  0  0  0  0  0  0  0  0  0
   -5.9327   -2.5120   -1.0225 C   0  0  0  0  0  0  0  0  0  0  0  0
   -5.3144   -3.6216    1.1304 C   0  0  0  0  0  0  0  0  0  0  0  0
   -1.2790    6.1917    0.0103 C   0  0  0  0  0  0  0  0  0  0  0  0
    1.2538    6.1971   -0.0100 C   0  0  0  0  0  0  0  0  0  0  0  0
    1.4098   -0.8012   -2.1680 H   0  0  0  0  0  0  0  0  0  0  0  0
   -1.4058   -0.8033    2.1666 H   0  0  0  0  0  0  0  0  0  0  0  0
    1.4457   -0.8024    2.1411 H   0  0  0  0  0  0  0  0  0  0  0  0
   -1.4416   -0.8099   -2.1425 H   0  0  0  0  0  0  0  0  0  0  0  0
    2.2179    1.5455   -0.0207 H   0  0  0  0  0  0  0  0  0  0  0  0
   -2.2236    1.5364    0.0172 H   0  0  0  0  0  0  0  0  0  0  0  0
    3.5654   -1.9448   -2.1975 H   0  0  0  0  0  0  0  0  0  0  0  0
   -3.5575   -1.9539    2.1975 H   0  0  0  0  0  0  0  0  0  0  0  0
    3.5927   -1.9629    2.1340 H   0  0  0  0  0  0  0  0  0  0  0  0
   -3.5848   -1.9774   -2.1338 H   0  0  0  0  0  0  0  0  0  0  0  0
    2.2315    3.8853   -0.0189 H   0  0  0  0  0  0  0  0  0  0  0  0
   -2.2466    3.8758    0.0187 H   0  0  0  0  0  0  0  0  0  0  0  0
    6.0008   -1.4324    1.3015 H   0  0  0  0  0  0  0  0  0  0  0  0
    6.9506   -2.7920    0.7172 H   0  0  0  0  0  0  0  0  0  0  0  0
    5.6775   -3.0801    1.9075 H   0  0  0  0  0  0  0  0  0  0  0  0
    5.6668   -3.0433   -2.0050 H   0  0  0  0  0  0  0  0  0  0  0  0
    4.4770   -4.2349   -1.4119 H   0  0  0  0  0  0  0  0  0  0  0  0
    6.1381   -4.2836   -0.8382 H   0  0  0  0  0  0  0  0  0  0  0  0
   -6.9398   -2.8162   -0.7159 H   0  0  0  0  0  0  0  0  0  0  0  0
   -5.6658   -3.1014   -1.9059 H   0  0  0  0  0  0  0  0  0  0  0  0
   -5.9946   -1.4542   -1.3020 H   0  0  0  0  0  0  0  0  0  0  0  0
   -4.4614   -4.2481    1.4149 H   0  0  0  0  0  0  0  0  0  0  0  0
   -5.6553   -3.0598    2.0064 H   0  0  0  0  0  0  0  0  0  0  0  0
   -6.1223   -4.3031    0.8412 H   0  0  0  0  0  0  0  0  0  0  0  0
   -1.8343    5.9532    0.9220 H   0  0  0  0  0  0  0  0  0  0  0  0
   -1.8491    5.9525   -0.8920 H   0  0  0  0  0  0  0  0  0  0  0  0
   -1.0621    7.2633    0.0080 H   0  0  0  0  0  0  0  0  0  0  0  0
    1.8097    5.9615   -0.9219 H   0  0  0  0  0  0  0  0  0  0  0  0
    1.8252    5.9602    0.8920 H   0  0  0  0  0  0  0  0  0  0  0  0
    1.0321    7.2679   -0.0073 H   0  0  0  0  0  0  0  0  0  0  0  0
  1 14  1  0  0  0  0
  1 23  1  0  0  0  0
  1 24  1  0  0  0  0
  2 15  1  0  0  0  0
  2 25  1  0  0  0  0
  2 26  1  0  0  0  0
  3 16  2  0  0  0  0
  3 27  1  0  0  0  0
  3 28  1  0  0  0  0
  4  5  1  0  0  0  0
  4  6  1  0  0  0  0
  4  7  2  0  0  0  0
  5  8  2  0  0  0  0
  5 10  1  0  0  0  0
  6  9  2  0  0  0  0
  6 11  1  0  0  0  0
  7 12  1  0  0  0  0
  7 13  1  0  0  0  0
  8 17  1  0  0  0  0
  8 29  1  0  0  0  0
  9 18  1  0  0  0  0
  9 30  1  0  0  0  0
 10 19  2  0  0  0  0
 10 31  1  0  0  0  0
 11 20  2  0  0  0  0
 11 32  1  0  0  0  0
 12 21  2  0  0  0  0
 12 33  1  0  0  0  0
 13 22  2  0  0  0  0
 13 34  1  0  0  0  0
 14 17  2  0  0  0  0
 14 19  1  0  0  0  0
 15 18  2  0  0  0  0
 15 20  1  0  0  0  0
 16 21  1  0  0  0  0
 16 22  1  0  0  0  0
 17 35  1  0  0  0  0
 18 36  1  0  0  0  0
 19 37  1  0  0  0  0
 20 38  1  0  0  0  0
 21 39  1  0  0  0  0
 22 40  1  0  0  0  0
 23 41  1  0  0  0  0
 23 42  1  0  0  0  0
 23 43  1  0  0  0  0
 24 44  1  0  0  0  0
 24 45  1  0  0  0  0
 24 46  1  0  0  0  0
 25 47  1  0  0  0  0
 25 48  1  0  0  0  0
 25 49  1  0  0  0  0
 26 50  1  0  0  0  0
 26 51  1  0  0  0  0
 26 52  1  0  0  0  0
 27 53  1  0  0  0  0
 27 54  1  0  0  0  0
 27 55  1  0  0  0  0
 28 56  1  0  0  0  0
 28 57  1  0  0  0  0
 28 58  1  0  0  0  0
M  END
