DB00871
 OpenBabel07062211533D

 35 35  0  0  1  0  0  0  0  0999 V2000
    0.4048   -0.5496    2.3356 O   0  0  0  0  0  0  0  0  0  0  0  0
    3.8418    2.6473    0.1404 O   0  0  0  0  0  0  0  0  0  0  0  0
    4.9759   -1.8909   -0.8104 O   0  0  0  0  0  0  0  0  0  0  0  0
   -1.8841   -0.5977    0.5914 N   0  0  0  0  0  0  0  0  0  0  0  0
   -2.9373    0.0648   -0.1850 C   0  0  0  0  0  0  0  0  0  0  0  0
   -0.5709   -0.1663    0.1433 C   0  0  0  0  0  0  0  0  0  0  0  0
    0.5351   -0.8590    0.9488 C   0  0  1  0  0  0  0  0  0  0  0  0
   -4.2987   -0.4133    0.3309 C   0  0  0  0  0  0  0  0  0  0  0  0
   -2.8049    1.5794    0.0064 C   0  0  0  0  0  0  0  0  0  0  0  0
   -2.7794   -0.2949   -1.6670 C   0  0  0  0  0  0  0  0  0  0  0  0
    1.9096   -0.4201    0.4935 C   0  0  0  0  0  0  0  0  0  0  0  0
    2.8105   -1.3725    0.0497 C   0  0  0  0  0  0  0  0  0  0  0  0
    2.2365    0.9244    0.5306 C   0  0  0  0  0  0  0  0  0  0  0  0
    3.5037    1.3291    0.1110 C   0  0  0  0  0  0  0  0  0  0  0  0
    4.0778   -0.9678   -0.3701 C   0  0  0  0  0  0  0  0  0  0  0  0
    4.4245    0.3829   -0.3394 C   0  0  0  0  0  0  0  0  0  0  0  0
   -1.9649   -1.6098    0.4951 H   0  0  0  0  0  0  0  0  0  0  0  0
   -0.3881   -0.3951   -0.9112 H   0  0  0  0  0  0  0  0  0  0  0  0
   -0.4590    0.9097    0.2918 H   0  0  0  0  0  0  0  0  0  0  0  0
    0.4371   -1.9475    0.8506 H   0  0  0  0  0  0  0  0  0  0  0  0
   -4.4273   -0.1778    1.3939 H   0  0  0  0  0  0  0  0  0  0  0  0
   -5.1198    0.0657   -0.2147 H   0  0  0  0  0  0  0  0  0  0  0  0
   -4.4129   -1.4973    0.2128 H   0  0  0  0  0  0  0  0  0  0  0  0
   -1.9734    2.0229   -0.5517 H   0  0  0  0  0  0  0  0  0  0  0  0
   -2.7007    1.8490    1.0643 H   0  0  0  0  0  0  0  0  0  0  0  0
   -3.7078    2.0850   -0.3591 H   0  0  0  0  0  0  0  0  0  0  0  0
   -2.6715   -1.3761   -1.8136 H   0  0  0  0  0  0  0  0  0  0  0  0
   -3.6721    0.0123   -2.2263 H   0  0  0  0  0  0  0  0  0  0  0  0
   -1.9368    0.2075   -2.1533 H   0  0  0  0  0  0  0  0  0  0  0  0
    2.5466   -2.4262    0.0231 H   0  0  0  0  0  0  0  0  0  0  0  0
    1.5375    1.6714    0.8952 H   0  0  0  0  0  0  0  0  0  0  0  0
   -0.4958   -0.7984    2.6050 H   0  0  0  0  0  0  0  0  0  0  0  0
    5.4122    0.6984   -0.6669 H   0  0  0  0  0  0  0  0  0  0  0  0
    4.7533    2.7467   -0.1841 H   0  0  0  0  0  0  0  0  0  0  0  0
    5.7986   -1.4365   -1.0606 H   0  0  0  0  0  0  0  0  0  0  0  0
  1  7  1  0  0  0  0
  1 32  1  0  0  0  0
  2 14  1  0  0  0  0
  2 34  1  0  0  0  0
  3 15  1  0  0  0  0
  3 35  1  0  0  0  0
  4  5  1  0  0  0  0
  4  6  1  0  0  0  0
  4 17  1  0  0  0  0
  5  8  1  0  0  0  0
  5  9  1  0  0  0  0
  5 10  1  0  0  0  0
  6  7  1  0  0  0  0
  6 18  1  0  0  0  0
  6 19  1  0  0  0  0
  7 11  1  0  0  0  0
  7 20  1  6  0  0  0
  8 21  1  0  0  0  0
  8 22  1  0  0  0  0
  8 23  1  0  0  0  0
  9 24  1  0  0  0  0
  9 25  1  0  0  0  0
  9 26  1  0  0  0  0
 10 27  1  0  0  0  0
 10 28  1  0  0  0  0
 10 29  1  0  0  0  0
 11 12  2  0  0  0  0
 11 13  1  0  0  0  0
 12 15  1  0  0  0  0
 12 30  1  0  0  0  0
 13 14  2  0  0  0  0
 13 31  1  0  0  0  0
 14 16  1  0  0  0  0
 15 16  2  0  0  0  0
 16 33  1  0  0  0  0
M  END
