DB00539
 OpenBabel07062211533D

 57 59  0  0  0  0  0  0  0  0999 V2000
   -6.5621   -2.3296    0.1939 Cl  0  0  0  0  0  0  0  0  0  0  0  0
    2.9928    1.7657    0.9456 O   0  0  0  0  0  0  0  0  0  0  0  0
    6.3097    0.8138   -0.3493 N   0  0  0  0  0  0  0  0  0  0  0  0
   -2.3317    0.3387   -0.0698 C   0  0  0  0  0  0  0  0  0  0  0  0
   -2.7106   -0.9727   -0.2540 C   0  0  0  0  0  0  0  0  0  0  0  0
   -0.9503    0.7092    0.1943 C   0  0  0  0  0  0  0  0  0  0  0  0
   -4.1087   -1.4695   -0.5964 C   0  0  0  0  0  0  0  0  0  0  0  0
   -3.4004    1.3861   -0.1540 C   0  0  0  0  0  0  0  0  0  0  0  0
   -1.7046   -2.0616   -0.1784 C   0  0  0  0  0  0  0  0  0  0  0  0
   -0.0902    0.9933   -0.8666 C   0  0  0  0  0  0  0  0  0  0  0  0
   -0.4853    0.7802    1.5074 C   0  0  0  0  0  0  0  0  0  0  0  0
   -4.9351   -1.7705    0.6512 C   0  0  0  0  0  0  0  0  0  0  0  0
    1.6908    1.4171    0.6971 C   0  0  0  0  0  0  0  0  0  0  0  0
    1.2349    1.3484   -0.6143 C   0  0  0  0  0  0  0  0  0  0  0  0
    0.8397    1.1355    1.7597 C   0  0  0  0  0  0  0  0  0  0  0  0
   -3.6679    1.9494   -1.3776 C   0  0  0  0  0  0  0  0  0  0  0  0
   -4.0646    1.7359    0.9961 C   0  0  0  0  0  0  0  0  0  0  0  0
   -1.4574   -2.6585    1.0413 C   0  0  0  0  0  0  0  0  0  0  0  0
   -1.0470   -2.4441   -1.3300 C   0  0  0  0  0  0  0  0  0  0  0  0
    5.2943    1.1951    0.6316 C   0  0  0  0  0  0  0  0  0  0  0  0
    3.9504    1.4147   -0.0446 C   0  0  0  0  0  0  0  0  0  0  0  0
   -4.6623    2.9244   -1.4561 C   0  0  0  0  0  0  0  0  0  0  0  0
   -5.0590    2.7108    0.9175 C   0  0  0  0  0  0  0  0  0  0  0  0
   -0.5118   -3.6815    1.1125 C   0  0  0  0  0  0  0  0  0  0  0  0
   -0.1014   -3.4673   -1.2587 C   0  0  0  0  0  0  0  0  0  0  0  0
   -5.3578    3.3050   -0.3087 C   0  0  0  0  0  0  0  0  0  0  0  0
    0.1660   -4.0859   -0.0375 C   0  0  0  0  0  0  0  0  0  0  0  0
    7.6040    0.6205    0.3034 C   0  0  0  0  0  0  0  0  0  0  0  0
    5.9069   -0.4018   -1.0557 C   0  0  0  0  0  0  0  0  0  0  0  0
   -4.6331   -0.7360   -1.2199 H   0  0  0  0  0  0  0  0  0  0  0  0
   -4.0422   -2.3698   -1.2226 H   0  0  0  0  0  0  0  0  0  0  0  0
   -0.4382    0.9485   -1.8960 H   0  0  0  0  0  0  0  0  0  0  0  0
   -1.1418    0.5615    2.3462 H   0  0  0  0  0  0  0  0  0  0  0  0
   -4.4801   -2.5642    1.2507 H   0  0  0  0  0  0  0  0  0  0  0  0
   -5.0612   -0.8918    1.2871 H   0  0  0  0  0  0  0  0  0  0  0  0
    1.8620    1.5902   -1.4669 H   0  0  0  0  0  0  0  0  0  0  0  0
    1.1983    1.1891    2.7835 H   0  0  0  0  0  0  0  0  0  0  0  0
   -3.1328    1.6583   -2.2765 H   0  0  0  0  0  0  0  0  0  0  0  0
   -3.8373    1.2810    1.9555 H   0  0  0  0  0  0  0  0  0  0  0  0
   -1.9769   -2.3506    1.9443 H   0  0  0  0  0  0  0  0  0  0  0  0
   -1.2483   -1.9699   -2.2866 H   0  0  0  0  0  0  0  0  0  0  0  0
    5.5858    2.1255    1.1359 H   0  0  0  0  0  0  0  0  0  0  0  0
    5.1903    0.4408    1.4236 H   0  0  0  0  0  0  0  0  0  0  0  0
    4.0195    2.2230   -0.7825 H   0  0  0  0  0  0  0  0  0  0  0  0
    3.6307    0.4906   -0.5362 H   0  0  0  0  0  0  0  0  0  0  0  0
   -4.8954    3.3867   -2.4108 H   0  0  0  0  0  0  0  0  0  0  0  0
   -5.6005    3.0074    1.8110 H   0  0  0  0  0  0  0  0  0  0  0  0
   -0.3028   -4.1625    2.0636 H   0  0  0  0  0  0  0  0  0  0  0  0
    0.4265   -3.7821   -2.1542 H   0  0  0  0  0  0  0  0  0  0  0  0
   -6.1323    4.0640   -0.3698 H   0  0  0  0  0  0  0  0  0  0  0  0
    0.9024   -4.8821    0.0180 H   0  0  0  0  0  0  0  0  0  0  0  0
    8.3797    0.3938   -0.4366 H   0  0  0  0  0  0  0  0  0  0  0  0
    7.5798   -0.1922    1.0385 H   0  0  0  0  0  0  0  0  0  0  0  0
    7.9189    1.5378    0.8135 H   0  0  0  0  0  0  0  0  0  0  0  0
    5.1142   -0.2077   -1.7849 H   0  0  0  0  0  0  0  0  0  0  0  0
    5.5919   -1.2011   -0.3749 H   0  0  0  0  0  0  0  0  0  0  0  0
    6.7418   -0.7894   -1.6528 H   0  0  0  0  0  0  0  0  0  0  0  0
  1 12  1  0  0  0  0
  2 13  1  0  0  0  0
  2 21  1  0  0  0  0
  3 20  1  0  0  0  0
  3 28  1  0  0  0  0
  3 29  1  0  0  0  0
  4  5  2  0  0  0  0
  4  6  1  0  0  0  0
  4  8  1  0  0  0  0
  5  7  1  0  0  0  0
  5  9  1  0  0  0  0
  6 10  2  0  0  0  0
  6 11  1  0  0  0  0
  7 12  1  0  0  0  0
  7 30  1  0  0  0  0
  7 31  1  0  0  0  0
  8 16  2  0  0  0  0
  8 17  1  0  0  0  0
  9 18  2  0  0  0  0
  9 19  1  0  0  0  0
 10 14  1  0  0  0  0
 10 32  1  0  0  0  0
 11 15  2  0  0  0  0
 11 33  1  0  0  0  0
 12 34  1  0  0  0  0
 12 35  1  0  0  0  0
 13 14  2  0  0  0  0
 13 15  1  0  0  0  0
 14 36  1  0  0  0  0
 15 37  1  0  0  0  0
 16 22  1  0  0  0  0
 16 38  1  0  0  0  0
 17 23  2  0  0  0  0
 17 39  1  0  0  0  0
 18 24  1  0  0  0  0
 18 40  1  0  0  0  0
 19 25  2  0  0  0  0
 19 41  1  0  0  0  0
 20 21  1  0  0  0  0
 20 42  1  0  0  0  0
 20 43  1  0  0  0  0
 21 44  1  0  0  0  0
 21 45  1  0  0  0  0
 22 26  2  0  0  0  0
 22 46  1  0  0  0  0
 23 26  1  0  0  0  0
 23 47  1  0  0  0  0
 24 27  2  0  0  0  0
 24 48  1  0  0  0  0
 25 27  1  0  0  0  0
 25 49  1  0  0  0  0
 26 50  1  0  0  0  0
 27 51  1  0  0  0  0
 28 52  1  0  0  0  0
 28 53  1  0  0  0  0
 28 54  1  0  0  0  0
 29 55  1  0  0  0  0
 29 56  1  0  0  0  0
 29 57  1  0  0  0  0
M  END
