DB00389
 OpenBabel07062211533D

 22 22  0  0  0  0  0  0  0  0999 V2000
   -0.5001    2.1331   -0.0019 S   0  0  0  0  0  0  0  0  0  0  0  0
    1.7056   -0.0236   -0.0001 O   0  0  0  0  0  0  0  0  0  0  0  0
    1.2351   -2.2600   -0.0014 O   0  0  0  0  0  0  0  0  0  0  0  0
   -2.5755    0.2862    0.0008 N   0  0  0  0  0  0  0  0  0  0  0  0
   -0.5083   -0.6996    0.0001 N   0  0  0  0  0  0  0  0  0  0  0  0
   -1.1836    0.6132    0.0001 C   0  0  0  0  0  0  0  0  0  0  0  0
   -1.5132   -1.6592    0.0004 C   0  0  0  0  0  0  0  0  0  0  0  0
   -2.7164   -1.0807    0.0006 C   0  0  0  0  0  0  0  0  0  0  0  0
   -3.7202    1.1780    0.0001 C   0  0  0  0  0  0  0  0  0  0  0  0
    0.8520   -1.0909   -0.0008 C   0  0  0  0  0  0  0  0  0  0  0  0
    3.1042   -0.3325   -0.0002 C   0  0  0  0  0  0  0  0  0  0  0  0
    3.8944    0.9586    0.0006 C   0  0  0  0  0  0  0  0  0  0  0  0
   -1.2937   -2.7154    0.0002 H   0  0  0  0  0  0  0  0  0  0  0  0
   -3.6871   -1.5503    0.0007 H   0  0  0  0  0  0  0  0  0  0  0  0
   -4.3231    0.9812    0.8917 H   0  0  0  0  0  0  0  0  0  0  0  0
   -4.3183    0.9856   -0.8957 H   0  0  0  0  0  0  0  0  0  0  0  0
   -3.4117    2.2250    0.0034 H   0  0  0  0  0  0  0  0  0  0  0  0
    3.3487   -0.9166    0.8940 H   0  0  0  0  0  0  0  0  0  0  0  0
    3.3488   -0.9156   -0.8950 H   0  0  0  0  0  0  0  0  0  0  0  0
    4.9696    0.7594    0.0005 H   0  0  0  0  0  0  0  0  0  0  0  0
    3.6464    1.5626   -0.8785 H   0  0  0  0  0  0  0  0  0  0  0  0
    3.6464    1.5615    0.8804 H   0  0  0  0  0  0  0  0  0  0  0  0
  1  6  2  0  0  0  0
  2 10  1  0  0  0  0
  2 11  1  0  0  0  0
  3 10  2  0  0  0  0
  4  6  1  0  0  0  0
  4  8  2  0  0  0  0
  4  9  1  0  0  0  0
  5  6  1  0  0  0  0
  5  7  2  0  0  0  0
  5 10  1  0  0  0  0
  7  8  1  0  0  0  0
  7 13  1  0  0  0  0
  8 14  1  0  0  0  0
  9 15  1  0  0  0  0
  9 16  1  0  0  0  0
  9 17  1  0  0  0  0
 11 12  1  0  0  0  0
 11 18  1  0  0  0  0
 11 19  1  0  0  0  0
 12 20  1  0  0  0  0
 12 21  1  0  0  0  0
 12 22  1  0  0  0  0
M  END
