DB00756
 OpenBabel07062211533D

 27 28  0  0  0  0  0  0  0  0999 V2000
    0.4413   -2.6829   -0.9719 Cl  0  0  0  0  0  0  0  0  0  0  0  0
   -2.4885   -2.5650    1.3393 Cl  0  0  0  0  0  0  0  0  0  0  0  0
    4.3452    1.9323    0.6193 Cl  0  0  0  0  0  0  0  0  0  0  0  0
   -2.3426    2.9245   -1.6471 Cl  0  0  0  0  0  0  0  0  0  0  0  0
    3.2001   -2.2282   -2.5504 Cl  0  0  0  0  0  0  0  0  0  0  0  0
   -5.0452   -1.4904   -0.2787 Cl  0  0  0  0  0  0  0  0  0  0  0  0
    1.7307    1.2990    1.9237 O   0  0  0  0  0  0  0  0  0  0  0  0
   -0.1085    1.7042   -0.0796 O   0  0  0  0  0  0  0  0  0  0  0  0
   -0.0781   -0.7358    1.2859 C   0  0  0  0  0  0  0  0  0  0  0  0
    1.1987   -0.5582    0.5230 C   0  0  0  0  0  0  0  0  0  0  0  0
   -1.3053   -0.2668    0.5357 C   0  0  0  0  0  0  0  0  0  0  0  0
    2.0618    0.4753    0.8867 C   0  0  0  0  0  0  0  0  0  0  0  0
   -1.2491    0.9553   -0.1191 C   0  0  0  0  0  0  0  0  0  0  0  0
    1.5304   -1.4042   -0.5351 C   0  0  0  0  0  0  0  0  0  0  0  0
   -2.4550   -1.0423    0.5070 C   0  0  0  0  0  0  0  0  0  0  0  0
    3.2571    0.6627    0.1923 C   0  0  0  0  0  0  0  0  0  0  0  0
   -2.3670    1.4112   -0.8178 C   0  0  0  0  0  0  0  0  0  0  0  0
    2.7256   -1.2168   -1.2294 C   0  0  0  0  0  0  0  0  0  0  0  0
   -3.5729   -0.5864   -0.1916 C   0  0  0  0  0  0  0  0  0  0  0  0
    3.5890   -0.1833   -0.8657 C   0  0  0  0  0  0  0  0  0  0  0  0
   -3.5288    0.6404   -0.8541 C   0  0  0  0  0  0  0  0  0  0  0  0
   -0.1123   -1.7902    1.5764 H   0  0  0  0  0  0  0  0  0  0  0  0
   -0.0728   -0.2325    2.2604 H   0  0  0  0  0  0  0  0  0  0  0  0
    4.5218   -0.0354   -1.4060 H   0  0  0  0  0  0  0  0  0  0  0  0
   -4.3997    0.9978   -1.3999 H   0  0  0  0  0  0  0  0  0  0  0  0
    0.7808    1.4978    1.8888 H   0  0  0  0  0  0  0  0  0  0  0  0
   -0.2569    2.5175   -0.5922 H   0  0  0  0  0  0  0  0  0  0  0  0
  1 14  1  0  0  0  0
  2 15  1  0  0  0  0
  3 16  1  0  0  0  0
  4 17  1  0  0  0  0
  5 18  1  0  0  0  0
  6 19  1  0  0  0  0
  7 12  1  0  0  0  0
  7 26  1  0  0  0  0
  8 13  1  0  0  0  0
  8 27  1  0  0  0  0
  9 10  1  0  0  0  0
  9 11  1  0  0  0  0
  9 22  1  0  0  0  0
  9 23  1  0  0  0  0
 10 12  2  0  0  0  0
 10 14  1  0  0  0  0
 11 13  2  0  0  0  0
 11 15  1  0  0  0  0
 12 16  1  0  0  0  0
 13 17  1  0  0  0  0
 14 18  2  0  0  0  0
 15 19  2  0  0  0  0
 16 20  2  0  0  0  0
 17 21  2  0  0  0  0
 18 20  1  0  0  0  0
 19 21  1  0  0  0  0
 20 24  1  0  0  0  0
 21 25  1  0  0  0  0
M  END
