DB00956
 OpenBabel07062211533D

 43 47  0  0  1  0  0  0  0  0999 V2000
   -1.7407    1.3897   -1.4506 O   0  0  0  0  0  0  0  0  0  0  0  0
   -1.6170    3.6661    0.0228 O   0  0  0  0  0  0  0  0  0  0  0  0
   -4.1484   -0.0903   -0.7180 O   0  0  0  0  0  0  0  0  0  0  0  0
    2.7967   -0.9653   -0.4391 N   0  0  0  0  0  0  0  0  0  0  0  0
    0.5019    0.7848   -0.7739 C   0  0  1  0  0  0  0  0  0  0  0  0
    1.6144    1.0567    0.2448 C   0  0  2  0  0  0  0  0  0  0  0  0
    2.1380   -0.3309    0.7287 C   0  0  1  0  0  0  0  0  0  0  0  0
   -0.4169    1.9474   -1.1801 C   0  0  2  0  0  0  0  0  0  0  0  0
    1.1185    0.0562   -1.9874 C   0  0  0  0  0  0  0  0  0  0  0  0
   -0.5487   -0.0695   -0.1579 C   0  0  0  0  0  0  0  0  0  0  0  0
    1.1635    1.9922    1.3736 C   0  0  0  0  0  0  0  0  0  0  0  0
    1.0186   -1.1969    1.4069 C   0  0  0  0  0  0  0  0  0  0  0  0
    1.9051   -1.2026   -1.5793 C   0  0  0  0  0  0  0  0  0  0  0  0
   -0.3525   -1.0416    0.8036 C   0  0  0  0  0  0  0  0  0  0  0  0
    0.6157    3.2899    0.7908 C   0  0  0  0  0  0  0  0  0  0  0  0
   -0.5803    3.0114   -0.0917 C   0  0  0  0  0  0  0  0  0  0  0  0
   -1.7942    0.2830   -0.6361 C   0  0  0  0  0  0  0  0  0  0  0  0
    3.5582   -2.1623   -0.0986 C   0  0  0  0  0  0  0  0  0  0  0  0
   -1.4804   -1.7482    1.2212 C   0  0  0  0  0  0  0  0  0  0  0  0
   -2.9179   -0.4099   -0.2485 C   0  0  0  0  0  0  0  0  0  0  0  0
   -2.7499   -1.4445    0.6832 C   0  0  0  0  0  0  0  0  0  0  0  0
   -5.2508   -0.8724   -0.2528 C   0  0  0  0  0  0  0  0  0  0  0  0
    2.4389    1.5785   -0.2658 H   0  0  0  0  0  0  0  0  0  0  0  0
    2.9182   -0.1492    1.4802 H   0  0  0  0  0  0  0  0  0  0  0  0
   -0.0580    2.4554   -2.0826 H   0  0  0  0  0  0  0  0  0  0  0  0
    1.7991    0.7453   -2.5056 H   0  0  0  0  0  0  0  0  0  0  0  0
    0.3506   -0.2290   -2.7181 H   0  0  0  0  0  0  0  0  0  0  0  0
    2.0161    2.2175    2.0249 H   0  0  0  0  0  0  0  0  0  0  0  0
    0.3996    1.5235    2.0041 H   0  0  0  0  0  0  0  0  0  0  0  0
    0.9465   -0.8760    2.4549 H   0  0  0  0  0  0  0  0  0  0  0  0
    1.2921   -2.2564    1.4294 H   0  0  0  0  0  0  0  0  0  0  0  0
    1.2077   -2.0220   -1.3658 H   0  0  0  0  0  0  0  0  0  0  0  0
    2.4965   -1.5218   -2.4467 H   0  0  0  0  0  0  0  0  0  0  0  0
    1.3717    3.8121    0.1949 H   0  0  0  0  0  0  0  0  0  0  0  0
    0.3060    3.9554    1.6038 H   0  0  0  0  0  0  0  0  0  0  0  0
    4.1829   -2.4659   -0.9462 H   0  0  0  0  0  0  0  0  0  0  0  0
    2.9207   -3.0117    0.1664 H   0  0  0  0  0  0  0  0  0  0  0  0
    4.2412   -1.9669    0.7353 H   0  0  0  0  0  0  0  0  0  0  0  0
   -1.3929   -2.5243    1.9770 H   0  0  0  0  0  0  0  0  0  0  0  0
   -3.5755   -2.0412    1.0594 H   0  0  0  0  0  0  0  0  0  0  0  0
   -6.1508   -0.4877   -0.7432 H   0  0  0  0  0  0  0  0  0  0  0  0
   -5.3957   -0.7556    0.8264 H   0  0  0  0  0  0  0  0  0  0  0  0
   -5.1476   -1.9229   -0.5444 H   0  0  0  0  0  0  0  0  0  0  0  0
  1  8  1  0  0  0  0
  1 17  1  0  0  0  0
  2 16  2  0  0  0  0
  3 20  1  0  0  0  0
  3 22  1  0  0  0  0
  4  7  1  0  0  0  0
  4 13  1  0  0  0  0
  4 18  1  0  0  0  0
  5  6  1  1  0  0  0
  5  9  1  0  0  0  0
  5 10  1  0  0  0  0
  6  7  1  1  0  0  0
  6 11  1  0  0  0  0
  6 23  1  0  0  0  0
  7 12  1  0  0  0  0
  7 24  1  1  0  0  0
  8  5  1  1  0  0  0
  8 16  1  0  0  0  0
  8 25  1  0  0  0  0
  9 13  1  0  0  0  0
  9 26  1  0  0  0  0
  9 27  1  0  0  0  0
 10 14  2  0  0  0  0
 10 17  1  0  0  0  0
 11 15  1  0  0  0  0
 11 28  1  0  0  0  0
 11 29  1  0  0  0  0
 12 14  1  0  0  0  0
 12 30  1  0  0  0  0
 12 31  1  0  0  0  0
 13 32  1  0  0  0  0
 13 33  1  0  0  0  0
 14 19  1  0  0  0  0
 15 16  1  0  0  0  0
 15 34  1  0  0  0  0
 15 35  1  0  0  0  0
 17 20  2  0  0  0  0
 18 36  1  0  0  0  0
 18 37  1  0  0  0  0
 18 38  1  0  0  0  0
 19 21  2  0  0  0  0
 19 39  1  0  0  0  0
 20 21  1  0  0  0  0
 21 40  1  0  0  0  0
 22 41  1  0  0  0  0
 22 42  1  0  0  0  0
 22 43  1  0  0  0  0
M  END
