DB00885
 OpenBabel07062211533D

 25 27  0  0  0  0  0  0  0  0999 V2000
    1.5263   -2.0962    0.0511 O   0  0  0  0  0  0  0  0  0  0  0  0
   -0.4758   -0.8853    0.0033 N   0  0  0  0  0  0  0  0  0  0  0  0
   -0.4045    1.4937    0.0119 N   0  0  0  0  0  0  0  0  0  0  0  0
    3.8940   -0.8341   -0.0057 N   0  0  0  0  0  0  0  0  0  0  0  0
    3.7964    1.4281   -0.0063 N   0  0  0  0  0  0  0  0  0  0  0  0
    5.0934   -0.2359   -0.0127 N   0  0  0  0  0  0  0  0  0  0  0  0
    5.0837    1.1044   -0.0136 N   0  0  0  0  0  0  0  0  0  0  0  0
   -1.0790    0.3831    0.0045 C   0  0  0  0  0  0  0  0  0  0  0  0
   -2.5856    0.4283   -0.0018 C   0  0  0  0  0  0  0  0  0  0  0  0
    0.9199   -1.0253    0.0183 C   0  0  0  0  0  0  0  0  0  0  0  0
    1.6795    0.2667    0.0068 C   0  0  0  0  0  0  0  0  0  0  0  0
   -1.2552   -2.0367   -0.0027 C   0  0  0  0  0  0  0  0  0  0  0  0
   -3.2655   -0.7271   -0.0086 C   0  0  0  0  0  0  0  0  0  0  0  0
    0.9567    1.3968    0.0104 C   0  0  0  0  0  0  0  0  0  0  0  0
   -2.5903   -1.9928   -0.0092 C   0  0  0  0  0  0  0  0  0  0  0  0
   -3.2559    1.7666   -0.0009 C   0  0  0  0  0  0  0  0  0  0  0  0
    3.1181    0.2487   -0.0017 C   0  0  0  0  0  0  0  0  0  0  0  0
   -0.7406   -2.9912   -0.0025 H   0  0  0  0  0  0  0  0  0  0  0  0
   -4.3504   -0.7430   -0.0135 H   0  0  0  0  0  0  0  0  0  0  0  0
    1.4512    2.3642    0.0067 H   0  0  0  0  0  0  0  0  0  0  0  0
   -3.1834   -2.8998   -0.0140 H   0  0  0  0  0  0  0  0  0  0  0  0
   -2.9761    2.3355    0.8917 H   0  0  0  0  0  0  0  0  0  0  0  0
   -4.3475    1.6763   -0.0065 H   0  0  0  0  0  0  0  0  0  0  0  0
   -2.9675    2.3410   -0.8873 H   0  0  0  0  0  0  0  0  0  0  0  0
    5.9580   -0.7662   -0.0175 H   0  0  0  0  0  0  0  0  0  0  0  0
  1 10  2  0  0  0  0
  2  8  1  0  0  0  0
  2 10  1  0  0  0  0
  2 12  1  0  0  0  0
  3  8  2  0  0  0  0
  3 14  1  0  0  0  0
  4  6  1  0  0  0  0
  4 17  2  0  0  0  0
  5  7  2  0  0  0  0
  5 17  1  0  0  0  0
  6  7  1  0  0  0  0
  6 25  1  0  0  0  0
  8  9  1  0  0  0  0
  9 13  2  0  0  0  0
  9 16  1  0  0  0  0
 10 11  1  0  0  0  0
 11 14  2  0  0  0  0
 11 17  1  0  0  0  0
 12 15  2  0  0  0  0
 12 18  1  0  0  0  0
 13 15  1  0  0  0  0
 13 19  1  0  0  0  0
 14 20  1  0  0  0  0
 15 21  1  0  0  0  0
 16 22  1  0  0  0  0
 16 23  1  0  0  0  0
 16 24  1  0  0  0  0
M  END
