DB00126
 OpenBabel07062211533D

 20 20  0  0  1  0  0  0  0  0999 V2000
   -0.4721    1.0609    0.8064 O   0  0  0  0  0  0  0  0  0  0  0  0
    0.7152    0.2352   -1.5445 O   0  0  0  0  0  0  0  0  0  0  0  0
   -1.4920   -2.2396   -0.1831 O   0  0  0  0  0  0  0  0  0  0  0  0
    3.3523    0.1649   -0.6867 O   0  0  0  0  0  0  0  0  0  0  0  0
   -3.6007   -0.1583   -0.4878 O   0  0  0  0  0  0  0  0  0  0  0  0
   -2.3448    2.3511    0.4259 O   0  0  0  0  0  0  0  0  0  0  0  0
   -0.1288   -0.3284    0.6288 C   0  0  2  0  0  0  0  0  0  0  0  0
    1.0535   -0.4200   -0.3227 C   0  0  2  0  0  0  0  0  0  0  0  0
   -1.3761   -0.9095    0.0945 C   0  0  0  0  0  0  0  0  0  0  0  0
    2.2897    0.2571    0.2562 C   0  0  0  0  0  0  0  0  0  0  0  0
   -2.3302    0.0063   -0.0395 C   0  0  0  0  0  0  0  0  0  0  0  0
   -1.7635    1.2805    0.4075 C   0  0  0  0  0  0  0  0  0  0  0  0
    0.1133   -0.7526    1.6097 H   0  0  0  0  0  0  0  0  0  0  0  0
    1.2861   -1.4611   -0.5725 H   0  0  0  0  0  0  0  0  0  0  0  0
    2.1159    1.3218    0.4433 H   0  0  0  0  0  0  0  0  0  0  0  0
    2.6036   -0.2262    1.1865 H   0  0  0  0  0  0  0  0  0  0  0  0
    0.5393    1.1706   -1.3447 H   0  0  0  0  0  0  0  0  0  0  0  0
   -0.6530   -2.6650    0.0641 H   0  0  0  0  0  0  0  0  0  0  0  0
    4.1254    0.5995   -0.2879 H   0  0  0  0  0  0  0  0  0  0  0  0
   -4.0331    0.7126   -0.4534 H   0  0  0  0  0  0  0  0  0  0  0  0
  1  7  1  0  0  0  0
  1 12  1  0  0  0  0
  2  8  1  0  0  0  0
  2 17  1  0  0  0  0
  3  9  1  0  0  0  0
  3 18  1  0  0  0  0
  4 10  1  0  0  0  0
  4 19  1  0  0  0  0
  5 11  1  0  0  0  0
  5 20  1  0  0  0  0
  6 12  2  0  0  0  0
  7  8  1  0  0  0  0
  7  9  1  0  0  0  0
  7 13  1  1  0  0  0
  8 10  1  0  0  0  0
  8 14  1  6  0  0  0
  9 11  2  0  0  0  0
 10 15  1  0  0  0  0
 10 16  1  0  0  0  0
 11 12  1  0  0  0  0
M  END
