DB00418
 OpenBabel07062211533D

 35 35  0  0  1  0  0  0  0  0999 V2000
   -2.3812   -0.2863   -1.7452 O   0  0  0  0  0  0  0  0  0  0  0  0
   -0.3825    0.6632    2.3965 O   0  0  0  0  0  0  0  0  0  0  0  0
   -2.1744    4.0186   -0.1701 O   0  0  0  0  0  0  0  0  0  0  0  0
   -2.1889    1.8752   -1.0013 N   0  0  0  0  0  0  0  0  0  0  0  0
   -1.1900    2.3497    1.0673 N   0  0  0  0  0  0  0  0  0  0  0  0
   -0.8332    0.1353    0.0731 C   0  0  0  0  0  0  0  0  0  0  0  0
    0.5384    0.2515   -0.6156 C   0  0  1  0  0  0  0  0  0  0  0  0
    1.7024   -0.1194    0.3218 C   0  0  0  0  0  0  0  0  0  0  0  0
   -1.0577   -1.3183    0.5147 C   0  0  0  0  0  0  0  0  0  0  0  0
    0.5705   -0.6445   -1.8564 C   0  0  0  0  0  0  0  0  0  0  0  0
   -1.8862    0.5224   -0.9605 C   0  0  0  0  0  0  0  0  0  0  0  0
   -0.7950    1.0408    1.3001 C   0  0  0  0  0  0  0  0  0  0  0  0
    3.0810    0.0515   -0.3207 C   0  0  0  0  0  0  0  0  0  0  0  0
   -2.4372   -1.5005    1.0547 C   0  0  0  0  0  0  0  0  0  0  0  0
   -1.8577    2.8338   -0.0512 C   0  0  0  0  0  0  0  0  0  0  0  0
    4.1953   -0.2584    0.6677 C   0  0  0  0  0  0  0  0  0  0  0  0
   -3.3376   -2.3349    0.5233 C   0  0  0  0  0  0  0  0  0  0  0  0
    0.6918    1.2868   -0.9512 H   0  0  0  0  0  0  0  0  0  0  0  0
    1.6190   -1.1572    0.6623 H   0  0  0  0  0  0  0  0  0  0  0  0
    1.6947    0.5152    1.2127 H   0  0  0  0  0  0  0  0  0  0  0  0
   -0.3666   -1.6207    1.3097 H   0  0  0  0  0  0  0  0  0  0  0  0
   -0.9165   -2.0317   -0.3030 H   0  0  0  0  0  0  0  0  0  0  0  0
    1.4681   -0.4220   -2.4461 H   0  0  0  0  0  0  0  0  0  0  0  0
   -0.2429   -0.4743   -2.5620 H   0  0  0  0  0  0  0  0  0  0  0  0
    0.6256   -1.7114   -1.6224 H   0  0  0  0  0  0  0  0  0  0  0  0
    3.1983    1.0773   -0.6883 H   0  0  0  0  0  0  0  0  0  0  0  0
    3.1994   -0.6214   -1.1755 H   0  0  0  0  0  0  0  0  0  0  0  0
   -2.7820    2.1849   -1.7663 H   0  0  0  0  0  0  0  0  0  0  0  0
   -1.0467    3.0091    1.8272 H   0  0  0  0  0  0  0  0  0  0  0  0
   -2.7190   -0.9417    1.9433 H   0  0  0  0  0  0  0  0  0  0  0  0
    4.1536    0.4139    1.5305 H   0  0  0  0  0  0  0  0  0  0  0  0
    4.1233   -1.2887    1.0304 H   0  0  0  0  0  0  0  0  0  0  0  0
    5.1717   -0.1345    0.1888 H   0  0  0  0  0  0  0  0  0  0  0  0
   -4.3224   -2.4334    0.9671 H   0  0  0  0  0  0  0  0  0  0  0  0
   -3.1153   -2.9299   -0.3555 H   0  0  0  0  0  0  0  0  0  0  0  0
  1 11  2  0  0  0  0
  2 12  2  0  0  0  0
  3 15  2  0  0  0  0
  4 11  1  0  0  0  0
  4 15  1  0  0  0  0
  4 28  1  0  0  0  0
  5 12  1  0  0  0  0
  5 15  1  0  0  0  0
  5 29  1  0  0  0  0
  6  7  1  0  0  0  0
  6  9  1  0  0  0  0
  6 11  1  0  0  0  0
  6 12  1  0  0  0  0
  7  8  1  0  0  0  0
  7 10  1  0  0  0  0
  7 18  1  6  0  0  0
  8 13  1  0  0  0  0
  8 19  1  0  0  0  0
  8 20  1  0  0  0  0
  9 14  1  0  0  0  0
  9 21  1  0  0  0  0
  9 22  1  0  0  0  0
 10 23  1  0  0  0  0
 10 24  1  0  0  0  0
 10 25  1  0  0  0  0
 13 16  1  0  0  0  0
 13 26  1  0  0  0  0
 13 27  1  0  0  0  0
 14 17  2  0  0  0  0
 14 30  1  0  0  0  0
 16 31  1  0  0  0  0
 16 32  1  0  0  0  0
 16 33  1  0  0  0  0
 17 34  1  0  0  0  0
 17 35  1  0  0  0  0
M  END
