DB00844
 OpenBabel07062211533D

 53 58  0  0  1  0  0  0  0  0999 V2000
    3.6772   -0.1844   -1.2198 O   0  0  0  0  0  0  0  0  0  0  0  0
   -0.3660   -2.2971   -0.6238 O   0  0  0  0  0  0  0  0  0  0  0  0
    3.8217   -1.3667    1.2164 O   0  0  0  0  0  0  0  0  0  0  0  0
    5.1463    2.2190   -0.4318 O   0  0  0  0  0  0  0  0  0  0  0  0
   -1.4786    0.2231   -0.8873 N   0  0  0  0  0  0  0  0  0  0  0  0
    1.3217   -0.5419   -0.8011 C   0  0  1  0  0  0  0  0  0  0  0  0
    0.2640   -1.2142    0.0860 C   0  0  1  0  0  0  0  0  0  0  0  0
   -0.8121   -0.1204    0.3975 C   0  0  1  0  0  0  0  0  0  0  0  0
    2.6836   -1.2449   -0.9803 C   0  0  2  0  0  0  0  0  0  0  0  0
    0.6728   -0.1181   -2.1431 C   0  0  0  0  0  0  0  0  0  0  0  0
    1.8517    0.6874   -0.1497 C   0  0  0  0  0  0  0  0  0  0  0  0
    0.8821   -1.8792    1.3241 C   0  0  0  0  0  0  0  0  0  0  0  0
    3.1481   -2.1276    0.2111 C   0  0  2  0  0  0  0  0  0  0  0  0
   -0.2117    1.1083    1.1666 C   0  0  0  0  0  0  0  0  0  0  0  0
   -0.5854    0.7477   -1.9270 C   0  0  0  0  0  0  0  0  0  0  0  0
    1.9977   -2.8530    0.9077 C   0  0  0  0  0  0  0  0  0  0  0  0
    1.1632    1.5196    0.7108 C   0  0  0  0  0  0  0  0  0  0  0  0
    3.1716    0.8837   -0.5081 C   0  0  0  0  0  0  0  0  0  0  0  0
   -2.6625    1.0599   -0.7268 C   0  0  0  0  0  0  0  0  0  0  0  0
   -3.6018    0.4978    0.3173 C   0  0  0  0  0  0  0  0  0  0  0  0
    1.8423    2.6508    1.1624 C   0  0  0  0  0  0  0  0  0  0  0  0
   -4.1378   -0.9169    0.0145 C   0  0  0  0  0  0  0  0  0  0  0  0
   -5.0601    0.9904    0.2088 C   0  0  0  0  0  0  0  0  0  0  0  0
    3.8538    2.0021   -0.0884 C   0  0  0  0  0  0  0  0  0  0  0  0
   -5.4911   -0.4429    0.5842 C   0  0  0  0  0  0  0  0  0  0  0  0
    3.1708    2.8970    0.7491 C   0  0  0  0  0  0  0  0  0  0  0  0
   -1.5368   -0.6110    1.0547 H   0  0  0  0  0  0  0  0  0  0  0  0
    2.6480   -1.8788   -1.8755 H   0  0  0  0  0  0  0  0  0  0  0  0
    0.3958   -1.0136   -2.7143 H   0  0  0  0  0  0  0  0  0  0  0  0
    1.3759    0.4379   -2.7770 H   0  0  0  0  0  0  0  0  0  0  0  0
    0.1131   -2.4508    1.8590 H   0  0  0  0  0  0  0  0  0  0  0  0
    1.2792   -1.1432    2.0310 H   0  0  0  0  0  0  0  0  0  0  0  0
    3.8776   -2.8613   -0.1510 H   0  0  0  0  0  0  0  0  0  0  0  0
   -0.1323    0.8306    2.2261 H   0  0  0  0  0  0  0  0  0  0  0  0
   -0.8855    1.9699    1.1277 H   0  0  0  0  0  0  0  0  0  0  0  0
   -0.2866    1.7780   -1.6970 H   0  0  0  0  0  0  0  0  0  0  0  0
   -1.1235    0.7933   -2.8822 H   0  0  0  0  0  0  0  0  0  0  0  0
    2.3725   -3.3435    1.8150 H   0  0  0  0  0  0  0  0  0  0  0  0
    1.6062   -3.6462    0.2619 H   0  0  0  0  0  0  0  0  0  0  0  0
   -2.3982    2.0926   -0.4699 H   0  0  0  0  0  0  0  0  0  0  0  0
   -3.1793    1.1101   -1.6943 H   0  0  0  0  0  0  0  0  0  0  0  0
    0.3079   -2.7589   -1.1497 H   0  0  0  0  0  0  0  0  0  0  0  0
   -3.2427    0.6170    1.3492 H   0  0  0  0  0  0  0  0  0  0  0  0
    1.3600    3.3450    1.8452 H   0  0  0  0  0  0  0  0  0  0  0  0
   -3.6653   -1.7385    0.5593 H   0  0  0  0  0  0  0  0  0  0  0  0
   -4.1838   -1.1780   -1.0497 H   0  0  0  0  0  0  0  0  0  0  0  0
   -5.3776    1.2893   -0.7972 H   0  0  0  0  0  0  0  0  0  0  0  0
   -5.3523    1.7705    0.9168 H   0  0  0  0  0  0  0  0  0  0  0  0
   -6.3811   -0.8216    0.0760 H   0  0  0  0  0  0  0  0  0  0  0  0
   -5.5973   -0.6042    1.6630 H   0  0  0  0  0  0  0  0  0  0  0  0
    4.6289   -1.0052    0.8122 H   0  0  0  0  0  0  0  0  0  0  0  0
    3.6729    3.7885    1.1190 H   0  0  0  0  0  0  0  0  0  0  0  0
    5.4428    3.0524   -0.0275 H   0  0  0  0  0  0  0  0  0  0  0  0
  1  9  1  0  0  0  0
  1 18  1  0  0  0  0
  2  7  1  0  0  0  0
  2 42  1  0  0  0  0
  3 13  1  0  0  0  0
  3 51  1  0  0  0  0
  4 24  1  0  0  0  0
  4 53  1  0  0  0  0
  5  8  1  0  0  0  0
  5 15  1  0  0  0  0
  5 19  1  0  0  0  0
  6  7  1  1  0  0  0
  6 10  1  0  0  0  0
  6 11  1  0  0  0  0
  7  8  1  1  0  0  0
  7 12  1  0  0  0  0
  8 14  1  0  0  0  0
  8 27  1  1  0  0  0
  9  6  1  1  0  0  0
  9 28  1  0  0  0  0
 10 15  1  0  0  0  0
 10 29  1  0  0  0  0
 10 30  1  0  0  0  0
 11 17  2  0  0  0  0
 11 18  1  0  0  0  0
 12 16  1  0  0  0  0
 12 31  1  0  0  0  0
 12 32  1  0  0  0  0
 13  9  1  6  0  0  0
 13 16  1  0  0  0  0
 13 33  1  0  0  0  0
 14 17  1  0  0  0  0
 14 34  1  0  0  0  0
 14 35  1  0  0  0  0
 15 36  1  0  0  0  0
 15 37  1  0  0  0  0
 16 38  1  0  0  0  0
 16 39  1  0  0  0  0
 17 21  1  0  0  0  0
 18 24  2  0  0  0  0
 19 20  1  0  0  0  0
 19 40  1  0  0  0  0
 19 41  1  0  0  0  0
 20 22  1  0  0  0  0
 20 23  1  0  0  0  0
 20 43  1  0  0  0  0
 21 26  2  0  0  0  0
 21 44  1  0  0  0  0
 22 25  1  0  0  0  0
 22 45  1  0  0  0  0
 22 46  1  0  0  0  0
 23 25  1  0  0  0  0
 23 47  1  0  0  0  0
 23 48  1  0  0  0  0
 24 26  1  0  0  0  0
 25 49  1  0  0  0  0
 25 50  1  0  0  0  0
 26 52  1  0  0  0  0
M  END
