DB00760
 OpenBabel07062211533D

 51 53  0  0  1  0  0  0  0  0999 V2000
   -0.7784    0.0895    0.8240 S   0  0  0  0  0  0  0  0  0  0  0  0
    4.2536    2.6193    0.6625 O   0  0  0  0  0  0  0  0  0  0  0  0
    5.8746   -1.4643   -0.8330 O   0  0  0  0  0  0  0  0  0  0  0  0
    0.5521    3.1566    1.2458 O   0  0  0  0  0  0  0  0  0  0  0  0
    0.8404    3.4398   -1.0059 O   0  0  0  0  0  0  0  0  0  0  0  0
   -3.9467    1.9865   -0.1474 O   0  0  0  0  0  0  0  0  0  0  0  0
    2.7481    1.1697   -0.4288 N   0  0  0  0  0  0  0  0  0  0  0  0
   -2.5792    0.5350   -1.8734 N   0  3  0  0  0  0  0  0  0  0  0  0
   -5.3886    0.3212    0.5943 N   0  0  0  0  0  0  0  0  0  0  0  0
    3.0472   -0.2746   -0.4599 C   0  0  1  0  0  0  0  0  0  0  0  0
    4.3972    0.1029    0.2299 C   0  0  2  0  0  0  0  0  0  0  0  0
    1.7952   -0.9218    0.1652 C   0  0  2  0  0  0  0  0  0  0  0  0
    3.8844    1.5600    0.2081 C   0  0  0  0  0  0  0  0  0  0  0  0
    0.8501    0.2590    0.3017 C   0  0  0  0  0  0  0  0  0  0  0  0
    1.4666    1.4039   -0.0196 C   0  0  0  0  0  0  0  0  0  0  0  0
    5.7337   -0.0982   -0.4388 C   0  0  1  0  0  0  0  0  0  0  0  0
   -1.4249   -1.0006   -0.4912 C   0  0  1  0  0  0  0  0  0  0  0  0
   -2.9183   -1.2727   -0.3183 C   0  0  0  0  0  0  0  0  0  0  0  0
    2.0598   -1.6667    1.4634 C   0  0  0  0  0  0  0  0  0  0  0  0
   -3.6457   -0.1583   -1.0703 C   0  0  1  0  0  0  0  0  0  0  0  0
   -1.3534   -0.3252   -1.8480 C   0  0  0  0  0  0  0  0  0  0  0  0
    6.9000    0.2710    0.4735 C   0  0  0  0  0  0  0  0  0  0  0  0
    0.8964    2.8056    0.0837 C   0  0  0  0  0  0  0  0  0  0  0  0
   -4.3328    0.8149   -0.1728 C   0  0  0  0  0  0  0  0  0  0  0  0
   -6.1451    1.1630    1.5124 C   0  0  0  0  0  0  0  0  0  0  0  0
   -5.8129   -1.0752    0.5330 C   0  0  0  0  0  0  0  0  0  0  0  0
    3.1845   -0.6136   -1.4970 H   0  0  0  0  0  0  0  0  0  0  0  0
    4.4375   -0.2821    1.2590 H   0  0  0  0  0  0  0  0  0  0  0  0
    1.3884   -1.6328   -0.5643 H   0  0  0  0  0  0  0  0  0  0  0  0
    5.7964    0.4941   -1.3584 H   0  0  0  0  0  0  0  0  0  0  0  0
   -0.8651   -1.9402   -0.4727 H   0  0  0  0  0  0  0  0  0  0  0  0
   -3.1889   -1.3764    0.7367 H   0  0  0  0  0  0  0  0  0  0  0  0
   -3.1561   -2.2295   -0.8024 H   0  0  0  0  0  0  0  0  0  0  0  0
    2.3842   -0.9885    2.2602 H   0  0  0  0  0  0  0  0  0  0  0  0
    2.8474   -2.4147    1.3230 H   0  0  0  0  0  0  0  0  0  0  0  0
    1.1619   -2.1868    1.8128 H   0  0  0  0  0  0  0  0  0  0  0  0
   -4.3521   -0.5535   -1.8077 H   0  0  0  0  0  0  0  0  0  0  0  0
   -0.4847    0.3016   -2.0587 H   0  0  0  0  0  0  0  0  0  0  0  0
   -1.4764   -1.0532   -2.6577 H   0  0  0  0  0  0  0  0  0  0  0  0
   -2.3532    1.4503   -1.4595 H   0  0  0  0  0  0  0  0  0  0  0  0
   -2.8888    0.7195   -2.8375 H   0  0  0  0  0  0  0  0  0  0  0  0
    6.8993   -0.3442    1.3803 H   0  0  0  0  0  0  0  0  0  0  0  0
    6.8553    1.3223    0.7729 H   0  0  0  0  0  0  0  0  0  0  0  0
    7.8539    0.0885   -0.0326 H   0  0  0  0  0  0  0  0  0  0  0  0
    5.8381   -2.0101   -0.0287 H   0  0  0  0  0  0  0  0  0  0  0  0
   -7.1876    1.1989    1.1836 H   0  0  0  0  0  0  0  0  0  0  0  0
   -5.7433    2.1791    1.5346 H   0  0  0  0  0  0  0  0  0  0  0  0
   -6.0873    0.7323    2.5162 H   0  0  0  0  0  0  0  0  0  0  0  0
   -5.4227   -1.5951    1.4128 H   0  0  0  0  0  0  0  0  0  0  0  0
   -5.5067   -1.5968   -0.3722 H   0  0  0  0  0  0  0  0  0  0  0  0
   -6.9071   -1.1095    0.5668 H   0  0  0  0  0  0  0  0  0  0  0  0
  1 14  1  0  0  0  0
  1 17  1  0  0  0  0
  2 13  2  0  0  0  0
  3 16  1  0  0  0  0
  3 45  1  0  0  0  0
  4 23  2  0  0  0  0
  5 23  1  0  0  0  0
  6 24  2  0  0  0  0
  7 10  1  0  0  0  0
  7 13  1  0  0  0  0
  7 15  1  0  0  0  0
  8 20  1  0  0  0  0
  8 21  1  0  0  0  0
  8 40  1  0  0  0  0
  8 41  1  0  0  0  0
  9 24  1  0  0  0  0
  9 25  1  0  0  0  0
  9 26  1  0  0  0  0
 10 11  1  1  0  0  0
 10 27  1  0  0  0  0
 11 13  1  0  0  0  0
 11 16  1  0  0  0  0
 11 28  1  1  0  0  0
 12 10  1  6  0  0  0
 12 14  1  0  0  0  0
 12 19  1  0  0  0  0
 12 29  1  0  0  0  0
 14 15  2  0  0  0  0
 15 23  1  0  0  0  0
 16 22  1  0  0  0  0
 16 30  1  6  0  0  0
 17 18  1  0  0  0  0
 17 21  1  0  0  0  0
 17 31  1  6  0  0  0
 18 20  1  0  0  0  0
 18 32  1  0  0  0  0
 18 33  1  0  0  0  0
 19 34  1  0  0  0  0
 19 35  1  0  0  0  0
 19 36  1  0  0  0  0
 20 24  1  0  0  0  0
 20 37  1  6  0  0  0
 21 38  1  0  0  0  0
 21 39  1  0  0  0  0
 22 42  1  0  0  0  0
 22 43  1  0  0  0  0
 22 44  1  0  0  0  0
 25 46  1  0  0  0  0
 25 47  1  0  0  0  0
 25 48  1  0  0  0  0
 26 49  1  0  0  0  0
 26 50  1  0  0  0  0
 26 51  1  0  0  0  0
M  CHG  1   8   1
M  END
