DB00180
 OpenBabel07062211533D

 62 66  0  0  1  0  0  0  0  0999 V2000
   -3.8488    2.7946   -1.6460 F   0  0  0  0  0  0  0  0  0  0  0  0
    2.7440    0.5077    0.9685 O   0  0  0  0  0  0  0  0  0  0  0  0
    3.3279    2.0068   -0.7445 O   0  0  0  0  0  0  0  0  0  0  0  0
   -1.2802   -2.6974   -0.1258 O   0  0  0  0  0  0  0  0  0  0  0  0
    4.5096   -1.1765   -1.1967 O   0  0  0  0  0  0  0  0  0  0  0  0
    4.8758   -2.7757    1.0189 O   0  0  0  0  0  0  0  0  0  0  0  0
   -6.2598    1.5112    2.4260 O   0  0  0  0  0  0  0  0  0  0  0  0
    1.1200   -0.7470   -0.4185 C   0  0  1  0  0  0  0  0  0  0  0  0
    0.3490    0.5652   -0.6840 C   0  0  2  0  0  0  0  0  0  0  0  0
   -1.1456    0.3508   -0.9595 C   0  0  1  0  0  0  0  0  0  0  0  0
    2.5546   -0.1788   -0.2661 C   0  0  1  0  0  0  0  0  0  0  0  0
   -1.7938   -0.3263    0.3001 C   0  0  2  0  0  0  0  0  0  0  0  0
    2.6554    0.9035   -1.3444 C   0  0  1  0  0  0  0  0  0  0  0  0
    1.2081    1.2830   -1.7272 C   0  0  0  0  0  0  0  0  0  0  0  0
    0.5145   -1.3883    0.8446 C   0  0  0  0  0  0  0  0  0  0  0  0
   -1.0127   -1.6052    0.7427 C   0  0  2  0  0  0  0  0  0  0  0  0
   -3.3597   -0.4838    0.1526 C   0  0  1  0  0  0  0  0  0  0  0  0
   -1.8311    1.6878   -1.2829 C   0  0  0  0  0  0  0  0  0  0  0  0
    1.0805   -1.7361   -1.6156 C   0  0  0  0  0  0  0  0  0  0  0  0
   -3.3389    1.5463   -1.4313 C   0  0  1  0  0  0  0  0  0  0  0  0
    3.3949    1.7434    0.6583 C   0  0  0  0  0  0  0  0  0  0  0  0
    3.6336   -1.2195   -0.3341 C   0  0  0  0  0  0  0  0  0  0  0  0
   -3.9280    0.8969   -0.2040 C   0  0  0  0  0  0  0  0  0  0  0  0
   -3.7905   -1.4798   -0.9480 C   0  0  0  0  0  0  0  0  0  0  0  0
   -3.9541   -1.0063    1.4525 C   0  0  0  0  0  0  0  0  0  0  0  0
    3.5777   -2.3126    0.7119 C   0  0  0  0  0  0  0  0  0  0  0  0
    4.8574    1.6471    1.0760 C   0  0  0  0  0  0  0  0  0  0  0  0
    2.7036    2.8816    1.4035 C   0  0  0  0  0  0  0  0  0  0  0  0
   -4.8559    1.5293    0.5317 C   0  0  0  0  0  0  0  0  0  0  0  0
   -4.8761   -0.3786    2.1884 C   0  0  0  0  0  0  0  0  0  0  0  0
   -5.4018    0.9324    1.7680 C   0  0  0  0  0  0  0  0  0  0  0  0
    0.3967    1.1856    0.2245 H   0  0  0  0  0  0  0  0  0  0  0  0
   -1.2714   -0.2981   -1.8316 H   0  0  0  0  0  0  0  0  0  0  0  0
   -1.6411    0.3873    1.1283 H   0  0  0  0  0  0  0  0  0  0  0  0
    3.2020    0.6136   -2.2472 H   0  0  0  0  0  0  0  0  0  0  0  0
    0.9730    0.9106   -2.7307 H   0  0  0  0  0  0  0  0  0  0  0  0
    1.0449    2.3654   -1.7157 H   0  0  0  0  0  0  0  0  0  0  0  0
    0.7036   -0.7510    1.7172 H   0  0  0  0  0  0  0  0  0  0  0  0
    0.9801   -2.3565    1.0475 H   0  0  0  0  0  0  0  0  0  0  0  0
   -1.3604   -1.9069    1.7370 H   0  0  0  0  0  0  0  0  0  0  0  0
   -1.4269    2.1098   -2.2109 H   0  0  0  0  0  0  0  0  0  0  0  0
   -1.6123    2.4273   -0.5005 H   0  0  0  0  0  0  0  0  0  0  0  0
    1.4998   -2.7092   -1.3411 H   0  0  0  0  0  0  0  0  0  0  0  0
    0.0701   -1.9243   -1.9837 H   0  0  0  0  0  0  0  0  0  0  0  0
    1.6535   -1.3733   -2.4755 H   0  0  0  0  0  0  0  0  0  0  0  0
   -3.5821    0.9575   -2.3216 H   0  0  0  0  0  0  0  0  0  0  0  0
   -3.2499   -1.3298   -1.8872 H   0  0  0  0  0  0  0  0  0  0  0  0
   -3.6413   -2.5229   -0.6486 H   0  0  0  0  0  0  0  0  0  0  0  0
   -4.8604   -1.3792   -1.1742 H   0  0  0  0  0  0  0  0  0  0  0  0
   -3.6242   -1.9829    1.7999 H   0  0  0  0  0  0  0  0  0  0  0  0
   -0.8171   -3.4769    0.2252 H   0  0  0  0  0  0  0  0  0  0  0  0
    2.9810   -3.1529    0.3524 H   0  0  0  0  0  0  0  0  0  0  0  0
    3.1583   -1.9287    1.6439 H   0  0  0  0  0  0  0  0  0  0  0  0
    5.3784    0.8651    0.5141 H   0  0  0  0  0  0  0  0  0  0  0  0
    5.3885    2.5843    0.8771 H   0  0  0  0  0  0  0  0  0  0  0  0
    4.9519    1.3995    2.1385 H   0  0  0  0  0  0  0  0  0  0  0  0
    2.7057    2.7076    2.4845 H   0  0  0  0  0  0  0  0  0  0  0  0
    3.1814    3.8440    1.1915 H   0  0  0  0  0  0  0  0  0  0  0  0
    1.6573    2.9692    1.0921 H   0  0  0  0  0  0  0  0  0  0  0  0
   -5.2332    2.5095    0.2609 H   0  0  0  0  0  0  0  0  0  0  0  0
   -5.2661   -0.8180    3.0991 H   0  0  0  0  0  0  0  0  0  0  0  0
    5.2310   -3.2012    0.2197 H   0  0  0  0  0  0  0  0  0  0  0  0
  1 20  1  0  0  0  0
  2 11  1  0  0  0  0
  2 21  1  0  0  0  0
  3 13  1  0  0  0  0
  3 21  1  0  0  0  0
  4 16  1  0  0  0  0
  4 51  1  0  0  0  0
  5 22  2  0  0  0  0
  6 26  1  0  0  0  0
  6 62  1  0  0  0  0
  7 31  2  0  0  0  0
  8  9  1  6  0  0  0
  8 15  1  0  0  0  0
  8 19  1  0  0  0  0
  9 10  1  6  0  0  0
  9 14  1  0  0  0  0
  9 32  1  0  0  0  0
 10 12  1  1  0  0  0
 10 18  1  0  0  0  0
 10 33  1  0  0  0  0
 11  8  1  6  0  0  0
 11 22  1  0  0  0  0
 12 16  1  1  0  0  0
 12 34  1  0  0  0  0
 13 11  1  1  0  0  0
 13 14  1  0  0  0  0
 13 35  1  0  0  0  0
 14 36  1  0  0  0  0
 14 37  1  0  0  0  0
 15 16  1  0  0  0  0
 15 38  1  0  0  0  0
 15 39  1  0  0  0  0
 16 40  1  1  0  0  0
 17 12  1  1  0  0  0
 17 23  1  0  0  0  0
 17 24  1  0  0  0  0
 17 25  1  0  0  0  0
 18 20  1  0  0  0  0
 18 41  1  0  0  0  0
 18 42  1  0  0  0  0
 19 43  1  0  0  0  0
 19 44  1  0  0  0  0
 19 45  1  0  0  0  0
 20 23  1  0  0  0  0
 20 46  1  6  0  0  0
 21 27  1  0  0  0  0
 21 28  1  0  0  0  0
 22 26  1  0  0  0  0
 23 29  2  0  0  0  0
 24 47  1  0  0  0  0
 24 48  1  0  0  0  0
 24 49  1  0  0  0  0
 25 30  2  0  0  0  0
 25 50  1  0  0  0  0
 26 52  1  0  0  0  0
 26 53  1  0  0  0  0
 27 54  1  0  0  0  0
 27 55  1  0  0  0  0
 27 56  1  0  0  0  0
 28 57  1  0  0  0  0
 28 58  1  0  0  0  0
 28 59  1  0  0  0  0
 29 31  1  0  0  0  0
 29 60  1  0  0  0  0
 30 31  1  0  0  0  0
 30 61  1  0  0  0  0
M  END
