DB00964
 OpenBabel07062211533D

 25 26  0  0  0  0  0  0  0  0999 V2000
   -0.5649   -2.7237   -0.6858 Cl  0  0  0  0  0  0  0  0  0  0  0  0
   -0.5752    2.7351   -0.6645 Cl  0  0  0  0  0  0  0  0  0  0  0  0
    2.9860    0.0065   -0.8773 N   0  0  0  0  0  0  0  0  0  0  0  0
    0.6672    0.0091   -1.0537 N   0  0  0  0  0  0  0  0  0  0  0  0
    1.7956   -0.0047    1.0549 N   0  0  0  0  0  0  0  0  0  0  0  0
   -4.7028   -0.0062    0.5918 N   0  0  0  0  0  0  0  0  0  0  0  0
    4.0433   -0.0030    0.0871 C   0  0  0  0  0  0  0  0  0  0  0  0
    3.2496   -0.0069    1.3998 C   0  0  0  0  0  0  0  0  0  0  0  0
    1.7728    0.0039   -0.2565 C   0  0  0  0  0  0  0  0  0  0  0  0
   -0.6702    0.0050   -0.6425 C   0  0  0  0  0  0  0  0  0  0  0  0
   -1.3520   -1.2049   -0.4401 C   0  0  0  0  0  0  0  0  0  0  0  0
   -1.3549    1.2111   -0.4275 C   0  0  0  0  0  0  0  0  0  0  0  0
   -3.3546   -0.0027    0.1774 C   0  0  0  0  0  0  0  0  0  0  0  0
   -2.6861   -1.2086   -0.0327 C   0  0  0  0  0  0  0  0  0  0  0  0
   -2.6892    1.2073   -0.0202 C   0  0  0  0  0  0  0  0  0  0  0  0
    4.6730    0.8874    0.0008 H   0  0  0  0  0  0  0  0  0  0  0  0
    4.6651   -0.8978   -0.0089 H   0  0  0  0  0  0  0  0  0  0  0  0
    3.4813   -0.8962    1.9954 H   0  0  0  0  0  0  0  0  0  0  0  0
    3.4821    0.8783    2.0011 H   0  0  0  0  0  0  0  0  0  0  0  0
    3.1383    0.0110   -1.8781 H   0  0  0  0  0  0  0  0  0  0  0  0
    0.7946    0.0189   -2.0611 H   0  0  0  0  0  0  0  0  0  0  0  0
   -3.2086   -2.1501    0.1232 H   0  0  0  0  0  0  0  0  0  0  0  0
   -3.2145    2.1458    0.1444 H   0  0  0  0  0  0  0  0  0  0  0  0
   -5.1889    0.8680    0.7410 H   0  0  0  0  0  0  0  0  0  0  0  0
   -5.1871   -0.8828    0.7320 H   0  0  0  0  0  0  0  0  0  0  0  0
  1 11  1  0  0  0  0
  2 12  1  0  0  0  0
  3  7  1  0  0  0  0
  3  9  1  0  0  0  0
  3 20  1  0  0  0  0
  4  9  1  0  0  0  0
  4 10  1  0  0  0  0
  4 21  1  0  0  0  0
  5  8  1  0  0  0  0
  5  9  2  0  0  0  0
  6 13  1  0  0  0  0
  6 24  1  0  0  0  0
  6 25  1  0  0  0  0
  7  8  1  0  0  0  0
  7 16  1  0  0  0  0
  7 17  1  0  0  0  0
  8 18  1  0  0  0  0
  8 19  1  0  0  0  0
 10 11  2  0  0  0  0
 10 12  1  0  0  0  0
 11 14  1  0  0  0  0
 12 15  2  0  0  0  0
 13 14  2  0  0  0  0
 13 15  1  0  0  0  0
 14 22  1  0  0  0  0
 15 23  1  0  0  0  0
M  END
