DB00335
 OpenBabel07062211533D

 41 41  0  0  1  0  0  0  0  0999 V2000
    0.5258   -1.8659    0.6258 O   0  0  0  0  0  0  0  0  0  0  0  0
    3.0078   -3.0884    0.9029 O   0  0  0  0  0  0  0  0  0  0  0  0
   -5.5222   -1.0918    0.8265 O   0  0  0  0  0  0  0  0  0  0  0  0
    3.0240    0.2800   -0.6349 N   0  0  0  0  0  0  0  0  0  0  0  0
   -6.7919    0.6063   -0.0605 N   0  0  0  0  0  0  0  0  0  0  0  0
    3.2492   -0.7651    0.3544 C   0  0  0  0  0  0  0  0  0  0  0  0
    2.7848   -2.1365   -0.1416 C   0  0  2  0  0  0  0  0  0  0  0  0
    3.4218    1.5819   -0.1170 C   0  0  0  0  0  0  0  0  0  0  0  0
    1.3070   -2.1725   -0.5249 C   0  0  0  0  0  0  0  0  0  0  0  0
    3.2192    2.6412   -1.1957 C   0  0  0  0  0  0  0  0  0  0  0  0
    2.6227    1.9184    1.1389 C   0  0  0  0  0  0  0  0  0  0  0  0
   -0.6671   -1.2300    0.4079 C   0  0  0  0  0  0  0  0  0  0  0  0
   -3.0912    0.0612   -0.0322 C   0  0  0  0  0  0  0  0  0  0  0  0
   -1.1740   -0.3674    1.3740 C   0  0  0  0  0  0  0  0  0  0  0  0
   -1.3616   -1.4527   -0.7762 C   0  0  0  0  0  0  0  0  0  0  0  0
   -2.3896    0.2800    1.1533 C   0  0  0  0  0  0  0  0  0  0  0  0
   -2.5772   -0.8052   -0.9970 C   0  0  0  0  0  0  0  0  0  0  0  0
   -4.3903    0.7538   -0.2687 C   0  0  0  0  0  0  0  0  0  0  0  0
   -5.5991   -0.0225    0.2278 C   0  0  0  0  0  0  0  0  0  0  0  0
    2.7208   -0.5764    1.2944 H   0  0  0  0  0  0  0  0  0  0  0  0
    4.3149   -0.8235    0.6113 H   0  0  0  0  0  0  0  0  0  0  0  0
    3.3846   -2.4472   -1.0054 H   0  0  0  0  0  0  0  0  0  0  0  0
    4.4899    1.5720    0.1360 H   0  0  0  0  0  0  0  0  0  0  0  0
    3.5451    0.0667   -1.4848 H   0  0  0  0  0  0  0  0  0  0  0  0
    1.1386   -1.4733   -1.3527 H   0  0  0  0  0  0  0  0  0  0  0  0
    1.0418   -3.1858   -0.8490 H   0  0  0  0  0  0  0  0  0  0  0  0
    3.8068    2.4100   -2.0912 H   0  0  0  0  0  0  0  0  0  0  0  0
    3.5380    3.6261   -0.8373 H   0  0  0  0  0  0  0  0  0  0  0  0
    2.1665    2.7163   -1.4915 H   0  0  0  0  0  0  0  0  0  0  0  0
    2.7473    2.9772    1.3954 H   0  0  0  0  0  0  0  0  0  0  0  0
    1.5494    1.7453    0.9986 H   0  0  0  0  0  0  0  0  0  0  0  0
    2.9592    1.3554    2.0149 H   0  0  0  0  0  0  0  0  0  0  0  0
    3.9595   -3.0859    1.1028 H   0  0  0  0  0  0  0  0  0  0  0  0
   -0.6301   -0.1937    2.2981 H   0  0  0  0  0  0  0  0  0  0  0  0
   -1.0132   -2.1435   -1.5381 H   0  0  0  0  0  0  0  0  0  0  0  0
   -2.7801    0.9514    1.9136 H   0  0  0  0  0  0  0  0  0  0  0  0
   -3.1189   -0.9905   -1.9209 H   0  0  0  0  0  0  0  0  0  0  0  0
   -4.5201    0.9501   -1.3410 H   0  0  0  0  0  0  0  0  0  0  0  0
   -4.3881    1.7357    0.2220 H   0  0  0  0  0  0  0  0  0  0  0  0
   -7.6780    0.1970    0.2162 H   0  0  0  0  0  0  0  0  0  0  0  0
   -6.8321    1.4921   -0.5545 H   0  0  0  0  0  0  0  0  0  0  0  0
  1  9  1  0  0  0  0
  1 12  1  0  0  0  0
  2  7  1  0  0  0  0
  2 33  1  0  0  0  0
  3 19  2  0  0  0  0
  4  6  1  0  0  0  0
  4  8  1  0  0  0  0
  4 24  1  0  0  0  0
  5 19  1  0  0  0  0
  5 40  1  0  0  0  0
  5 41  1  0  0  0  0
  6  7  1  0  0  0  0
  6 20  1  0  0  0  0
  6 21  1  0  0  0  0
  7  9  1  0  0  0  0
  7 22  1  6  0  0  0
  8 10  1  0  0  0  0
  8 11  1  0  0  0  0
  8 23  1  0  0  0  0
  9 25  1  0  0  0  0
  9 26  1  0  0  0  0
 10 27  1  0  0  0  0
 10 28  1  0  0  0  0
 10 29  1  0  0  0  0
 11 30  1  0  0  0  0
 11 31  1  0  0  0  0
 11 32  1  0  0  0  0
 12 14  2  0  0  0  0
 12 15  1  0  0  0  0
 13 16  2  0  0  0  0
 13 17  1  0  0  0  0
 13 18  1  0  0  0  0
 14 16  1  0  0  0  0
 14 34  1  0  0  0  0
 15 17  2  0  0  0  0
 15 35  1  0  0  0  0
 16 36  1  0  0  0  0
 17 37  1  0  0  0  0
 18 19  1  0  0  0  0
 18 38  1  0  0  0  0
 18 39  1  0  0  0  0
M  END
