DB00496
 OpenBabel07062211533D

 62 66  0  0  1  0  0  0  0  0999 V2000
    2.8146   -0.4746   -2.7382 O   0  0  0  0  0  0  0  0  0  0  0  0
   -7.9875   -0.2529   -0.0904 O   0  0  0  0  0  0  0  0  0  0  0  0
   -0.3878   -1.7441    0.3827 N   0  0  0  0  0  0  0  0  0  0  0  0
    1.3910    1.1875   -2.0964 N   0  0  0  0  0  0  0  0  0  0  0  0
    1.7691   -0.9170    0.2891 C   0  0  2  0  0  0  0  0  0  0  0  0
    2.7338    0.0844   -0.3239 C   0  0  0  0  0  0  0  0  0  0  0  0
    1.7738   -2.2776   -0.4118 C   0  0  0  0  0  0  0  0  0  0  0  0
    0.3134   -0.4710    0.2138 C   0  0  0  0  0  0  0  0  0  0  0  0
    0.3050   -2.6873   -0.4975 C   0  0  0  0  0  0  0  0  0  0  0  0
   -1.8082   -1.6425    0.0832 C   0  0  0  0  0  0  0  0  0  0  0  0
    4.2290   -0.3866   -0.2741 C   0  0  0  0  0  0  0  0  0  0  0  0
    2.6220    1.4542    0.4224 C   0  0  0  0  0  0  0  0  0  0  0  0
    2.3463    0.2247   -1.8391 C   0  0  0  0  0  0  0  0  0  0  0  0
   -2.5051   -0.6861    1.0516 C   0  0  0  0  0  0  0  0  0  0  0  0
    4.6026   -1.1551    0.7815 C   0  0  0  0  0  0  0  0  0  0  0  0
    2.7951    2.5837   -0.3153 C   0  0  0  0  0  0  0  0  0  0  0  0
    5.0383    0.0086   -1.2905 C   0  0  0  0  0  0  0  0  0  0  0  0
    2.3590    1.4197    1.7564 C   0  0  0  0  0  0  0  0  0  0  0  0
   -3.9725   -0.5894    0.7681 C   0  0  0  0  0  0  0  0  0  0  0  0
    5.9323   -1.5742    0.8258 C   0  0  0  0  0  0  0  0  0  0  0  0
    2.6953    3.8057    0.3501 C   0  0  0  0  0  0  0  0  0  0  0  0
    6.3680   -0.4106   -1.2462 C   0  0  0  0  0  0  0  0  0  0  0  0
    2.2590    2.6416    2.4216 C   0  0  0  0  0  0  0  0  0  0  0  0
   -4.4437    0.3772   -0.1243 C   0  0  0  0  0  0  0  0  0  0  0  0
   -4.8609   -1.4786    1.3960 C   0  0  0  0  0  0  0  0  0  0  0  0
    6.8148   -1.2021   -0.1880 C   0  0  0  0  0  0  0  0  0  0  0  0
    2.4271    3.8346    1.7184 C   0  0  0  0  0  0  0  0  0  0  0  0
   -5.8049    0.4402   -0.3588 C   0  0  0  0  0  0  0  0  0  0  0  0
   -6.6762   -0.4394    0.2664 C   0  0  0  0  0  0  0  0  0  0  0  0
   -6.5642    1.3068   -1.2859 C   0  0  0  0  0  0  0  0  0  0  0  0
   -6.2319   -1.4110    1.1419 C   0  0  0  0  0  0  0  0  0  0  0  0
   -7.9783    1.0207   -0.7784 C   0  0  0  0  0  0  0  0  0  0  0  0
    1.9740   -1.1400    1.3423 H   0  0  0  0  0  0  0  0  0  0  0  0
    2.2307   -2.3143   -1.4013 H   0  0  0  0  0  0  0  0  0  0  0  0
    2.3211   -3.0029    0.2039 H   0  0  0  0  0  0  0  0  0  0  0  0
    0.0691    0.2280    1.0172 H   0  0  0  0  0  0  0  0  0  0  0  0
    0.0027   -0.0412   -0.7355 H   0  0  0  0  0  0  0  0  0  0  0  0
    0.1548   -3.7234   -0.1780 H   0  0  0  0  0  0  0  0  0  0  0  0
   -0.0331   -2.5935   -1.5376 H   0  0  0  0  0  0  0  0  0  0  0  0
   -1.9752   -1.3182   -0.9531 H   0  0  0  0  0  0  0  0  0  0  0  0
   -2.2647   -2.6367    0.1763 H   0  0  0  0  0  0  0  0  0  0  0  0
   -2.3509   -1.0145    2.0881 H   0  0  0  0  0  0  0  0  0  0  0  0
   -2.0863    0.3257    0.9947 H   0  0  0  0  0  0  0  0  0  0  0  0
    3.9615   -1.4427    1.6029 H   0  0  0  0  0  0  0  0  0  0  0  0
    3.1081    2.6150   -1.3522 H   0  0  0  0  0  0  0  0  0  0  0  0
    4.7590    0.6829   -2.0907 H   0  0  0  0  0  0  0  0  0  0  0  0
    2.2626    0.5273    2.3583 H   0  0  0  0  0  0  0  0  0  0  0  0
    0.8749    1.7026   -1.3919 H   0  0  0  0  0  0  0  0  0  0  0  0
    1.0883    1.3498   -3.0516 H   0  0  0  0  0  0  0  0  0  0  0  0
    6.2827   -2.1841    1.6534 H   0  0  0  0  0  0  0  0  0  0  0  0
    2.8505    4.7341   -0.1917 H   0  0  0  0  0  0  0  0  0  0  0  0
    7.0604   -0.1064   -2.0259 H   0  0  0  0  0  0  0  0  0  0  0  0
    2.0612    2.6649    3.4895 H   0  0  0  0  0  0  0  0  0  0  0  0
   -3.7649    1.0569   -0.6294 H   0  0  0  0  0  0  0  0  0  0  0  0
   -4.4875   -2.2334    2.0838 H   0  0  0  0  0  0  0  0  0  0  0  0
    7.8515   -1.5236   -0.1506 H   0  0  0  0  0  0  0  0  0  0  0  0
    2.3572    4.7857    2.2382 H   0  0  0  0  0  0  0  0  0  0  0  0
   -6.3110    2.3673   -1.2102 H   0  0  0  0  0  0  0  0  0  0  0  0
   -6.4376    0.9619   -2.3171 H   0  0  0  0  0  0  0  0  0  0  0  0
   -6.9198   -2.0986    1.6209 H   0  0  0  0  0  0  0  0  0  0  0  0
   -8.7029    0.9940   -1.5989 H   0  0  0  0  0  0  0  0  0  0  0  0
   -8.3045    1.7877   -0.0642 H   0  0  0  0  0  0  0  0  0  0  0  0
  1 13  2  0  0  0  0
  2 29  1  0  0  0  0
  2 32  1  0  0  0  0
  3  8  1  0  0  0  0
  3  9  1  0  0  0  0
  3 10  1  0  0  0  0
  4 13  1  0  0  0  0
  4 48  1  0  0  0  0
  4 49  1  0  0  0  0
  5  6  1  0  0  0  0
  5  7  1  0  0  0  0
  5  8  1  0  0  0  0
  5 33  1  1  0  0  0
  6 11  1  0  0  0  0
  6 12  1  0  0  0  0
  6 13  1  0  0  0  0
  7  9  1  0  0  0  0
  7 34  1  0  0  0  0
  7 35  1  0  0  0  0
  8 36  1  0  0  0  0
  8 37  1  0  0  0  0
  9 38  1  0  0  0  0
  9 39  1  0  0  0  0
 10 14  1  0  0  0  0
 10 40  1  0  0  0  0
 10 41  1  0  0  0  0
 11 15  2  0  0  0  0
 11 17  1  0  0  0  0
 12 16  2  0  0  0  0
 12 18  1  0  0  0  0
 14 19  1  0  0  0  0
 14 42  1  0  0  0  0
 14 43  1  0  0  0  0
 15 20  1  0  0  0  0
 15 44  1  0  0  0  0
 16 21  1  0  0  0  0
 16 45  1  0  0  0  0
 17 22  2  0  0  0  0
 17 46  1  0  0  0  0
 18 23  2  0  0  0  0
 18 47  1  0  0  0  0
 19 24  2  0  0  0  0
 19 25  1  0  0  0  0
 20 26  2  0  0  0  0
 20 50  1  0  0  0  0
 21 27  2  0  0  0  0
 21 51  1  0  0  0  0
 22 26  1  0  0  0  0
 22 52  1  0  0  0  0
 23 27  1  0  0  0  0
 23 53  1  0  0  0  0
 24 28  1  0  0  0  0
 24 54  1  0  0  0  0
 25 31  2  0  0  0  0
 25 55  1  0  0  0  0
 26 56  1  0  0  0  0
 27 57  1  0  0  0  0
 28 29  2  0  0  0  0
 28 30  1  0  0  0  0
 29 31  1  0  0  0  0
 30 32  1  0  0  0  0
 30 58  1  0  0  0  0
 30 59  1  0  0  0  0
 31 60  1  0  0  0  0
 32 61  1  0  0  0  0
 32 62  1  0  0  0  0
M  END
