DB00169
 OpenBabel07062211533D

 72 74  0  0  1  0  0  0  0  0999 V2000
    7.1895   -0.7807    2.2943 O   0  0  0  0  0  0  0  0  0  0  0  0
   -0.5850    1.3087   -0.3099 C   0  0  2  0  0  0  0  0  0  0  0  0
   -1.8408    0.4489   -0.6043 C   0  0  2  0  0  0  0  0  0  0  0  0
    0.4009    0.1872    0.1018 C   0  0  1  0  0  0  0  0  0  0  0  0
   -1.2876   -0.7815   -1.3533 C   0  0  0  0  0  0  0  0  0  0  0  0
    0.1983   -0.8867   -0.9717 C   0  0  0  0  0  0  0  0  0  0  0  0
   -0.7668    2.3039    0.8607 C   0  0  0  0  0  0  0  0  0  0  0  0
   -2.9747    1.1366   -1.3512 C   0  0  1  0  0  0  0  0  0  0  0  0
    1.7735    0.7283    0.4056 C   0  0  0  0  0  0  0  0  0  0  0  0
   -0.1268    2.0873   -1.5706 C   0  0  0  0  0  0  0  0  0  0  0  0
    0.4275    2.3366    1.8339 C   0  0  0  0  0  0  0  0  0  0  0  0
    1.7820    2.0301    1.1813 C   0  0  0  0  0  0  0  0  0  0  0  0
   -4.1932    0.2148   -1.5679 C   0  0  0  0  0  0  0  0  0  0  0  0
   -3.4206    2.3914   -0.5897 C   0  0  0  0  0  0  0  0  0  0  0  0
    2.9187    0.1306    0.0455 C   0  0  0  0  0  0  0  0  0  0  0  0
   -4.8181   -0.3834   -0.3005 C   0  0  0  0  0  0  0  0  0  0  0  0
   -5.9746   -1.3470   -0.5858 C   0  0  0  0  0  0  0  0  0  0  0  0
    4.2210    0.6637    0.3588 C   0  0  0  0  0  0  0  0  0  0  0  0
   -6.6476   -1.8916    0.6893 C   0  0  0  0  0  0  0  0  0  0  0  0
    5.3678    0.0657   -0.0014 C   0  0  0  0  0  0  0  0  0  0  0  0
    6.7172    0.6314    0.3823 C   0  0  0  0  0  0  0  0  0  0  0  0
   -7.1792   -0.7789    1.5940 C   0  0  0  0  0  0  0  0  0  0  0  0
   -5.6542   -2.7573    1.4692 C   0  0  0  0  0  0  0  0  0  0  0  0
    5.4067   -1.1876   -0.7482 C   0  0  0  0  0  0  0  0  0  0  0  0
    7.6477   -0.4237    0.9917 C   0  0  2  0  0  0  0  0  0  0  0  0
    6.3258   -2.2414   -0.1814 C   0  0  0  0  0  0  0  0  0  0  0  0
    7.7185   -1.6814    0.1233 C   0  0  0  0  0  0  0  0  0  0  0  0
    4.7069   -1.3883   -1.8760 C   0  0  0  0  0  0  0  0  0  0  0  0
   -2.2130    0.0957    0.3671 H   0  0  0  0  0  0  0  0  0  0  0  0
    0.0440   -0.2587    1.0450 H   0  0  0  0  0  0  0  0  0  0  0  0
   -1.8297   -1.6882   -1.0626 H   0  0  0  0  0  0  0  0  0  0  0  0
   -1.3798   -0.6792   -2.4407 H   0  0  0  0  0  0  0  0  0  0  0  0
    0.4421   -1.8860   -0.5953 H   0  0  0  0  0  0  0  0  0  0  0  0
    0.8227   -0.7071   -1.8546 H   0  0  0  0  0  0  0  0  0  0  0  0
   -1.6500    2.0600    1.4609 H   0  0  0  0  0  0  0  0  0  0  0  0
   -0.9133    3.3233    0.4857 H   0  0  0  0  0  0  0  0  0  0  0  0
   -2.6397    1.4483   -2.3482 H   0  0  0  0  0  0  0  0  0  0  0  0
    0.8370    2.5818   -1.4189 H   0  0  0  0  0  0  0  0  0  0  0  0
   -0.0163    1.4371   -2.4442 H   0  0  0  0  0  0  0  0  0  0  0  0
   -0.8339    2.8753   -1.8461 H   0  0  0  0  0  0  0  0  0  0  0  0
    0.2483    1.6018    2.6307 H   0  0  0  0  0  0  0  0  0  0  0  0
    0.4665    3.3139    2.3298 H   0  0  0  0  0  0  0  0  0  0  0  0
    2.0518    2.8575    0.5146 H   0  0  0  0  0  0  0  0  0  0  0  0
    2.5152    2.0002    1.9955 H   0  0  0  0  0  0  0  0  0  0  0  0
   -3.9005   -0.6075   -2.2330 H   0  0  0  0  0  0  0  0  0  0  0  0
   -4.9677    0.7702   -2.1133 H   0  0  0  0  0  0  0  0  0  0  0  0
   -2.7091    3.2124   -0.6833 H   0  0  0  0  0  0  0  0  0  0  0  0
   -4.3560    2.7753   -1.0154 H   0  0  0  0  0  0  0  0  0  0  0  0
   -3.6146    2.1940    0.4685 H   0  0  0  0  0  0  0  0  0  0  0  0
    2.8243   -0.8328   -0.4362 H   0  0  0  0  0  0  0  0  0  0  0  0
   -5.1666    0.4391    0.3305 H   0  0  0  0  0  0  0  0  0  0  0  0
   -4.0511   -0.9234    0.2592 H   0  0  0  0  0  0  0  0  0  0  0  0
   -5.6135   -2.1829   -1.1975 H   0  0  0  0  0  0  0  0  0  0  0  0
   -6.7314   -0.8260   -1.1859 H   0  0  0  0  0  0  0  0  0  0  0  0
    4.2939    1.5983    0.9047 H   0  0  0  0  0  0  0  0  0  0  0  0
   -7.4901   -2.5225    0.3800 H   0  0  0  0  0  0  0  0  0  0  0  0
    6.5977    1.4567    1.0955 H   0  0  0  0  0  0  0  0  0  0  0  0
    7.1855    1.0473   -0.5192 H   0  0  0  0  0  0  0  0  0  0  0  0
   -6.3768   -0.2043    2.0670 H   0  0  0  0  0  0  0  0  0  0  0  0
   -7.7871   -1.2063    2.3993 H   0  0  0  0  0  0  0  0  0  0  0  0
   -7.8145   -0.0880    1.0301 H   0  0  0  0  0  0  0  0  0  0  0  0
   -4.8459   -2.1692    1.9149 H   0  0  0  0  0  0  0  0  0  0  0  0
   -6.1678   -3.2726    2.2887 H   0  0  0  0  0  0  0  0  0  0  0  0
   -5.2099   -3.5240    0.8260 H   0  0  0  0  0  0  0  0  0  0  0  0
    8.6519   -0.0034    1.1115 H   0  0  0  0  0  0  0  0  0  0  0  0
    5.8780   -2.6519    0.7325 H   0  0  0  0  0  0  0  0  0  0  0  0
    6.4321   -3.0849   -0.8748 H   0  0  0  0  0  0  0  0  0  0  0  0
    8.3038   -2.4556    0.6333 H   0  0  0  0  0  0  0  0  0  0  0  0
    8.2306   -1.4460   -0.8181 H   0  0  0  0  0  0  0  0  0  0  0  0
    4.7690   -2.3338   -2.4064 H   0  0  0  0  0  0  0  0  0  0  0  0
    4.0933   -0.6199   -2.3350 H   0  0  0  0  0  0  0  0  0  0  0  0
    6.2579   -1.0495    2.2381 H   0  0  0  0  0  0  0  0  0  0  0  0
  1 25  1  0  0  0  0
  1 72  1  0  0  0  0
  2  3  1  6  0  0  0
  2  7  1  0  0  0  0
  2 10  1  0  0  0  0
  3  5  1  0  0  0  0
  3  8  1  0  0  0  0
  3 29  1  1  0  0  0
  4  2  1  6  0  0  0
  4  6  1  0  0  0  0
  4  9  1  0  0  0  0
  4 30  1  0  0  0  0
  5  6  1  0  0  0  0
  5 31  1  0  0  0  0
  5 32  1  0  0  0  0
  6 33  1  0  0  0  0
  6 34  1  0  0  0  0
  7 11  1  0  0  0  0
  7 35  1  0  0  0  0
  7 36  1  0  0  0  0
  8 13  1  0  0  0  0
  8 14  1  0  0  0  0
  8 37  1  6  0  0  0
  9 12  1  0  0  0  0
  9 15  2  0  0  0  0
 10 38  1  0  0  0  0
 10 39  1  0  0  0  0
 10 40  1  0  0  0  0
 11 12  1  0  0  0  0
 11 41  1  0  0  0  0
 11 42  1  0  0  0  0
 12 43  1  0  0  0  0
 12 44  1  0  0  0  0
 13 16  1  0  0  0  0
 13 45  1  0  0  0  0
 13 46  1  0  0  0  0
 14 47  1  0  0  0  0
 14 48  1  0  0  0  0
 14 49  1  0  0  0  0
 15 18  1  0  0  0  0
 15 50  1  0  0  0  0
 16 17  1  0  0  0  0
 16 51  1  0  0  0  0
 16 52  1  0  0  0  0
 17 19  1  0  0  0  0
 17 53  1  0  0  0  0
 17 54  1  0  0  0  0
 18 20  2  0  0  0  0
 18 55  1  0  0  0  0
 19 22  1  0  0  0  0
 19 23  1  0  0  0  0
 19 56  1  0  0  0  0
 20 21  1  0  0  0  0
 20 24  1  0  0  0  0
 21 25  1  0  0  0  0
 21 57  1  0  0  0  0
 21 58  1  0  0  0  0
 22 59  1  0  0  0  0
 22 60  1  0  0  0  0
 22 61  1  0  0  0  0
 23 62  1  0  0  0  0
 23 63  1  0  0  0  0
 23 64  1  0  0  0  0
 24 26  1  0  0  0  0
 24 28  2  0  0  0  0
 25 27  1  0  0  0  0
 25 65  1  1  0  0  0
 26 27  1  0  0  0  0
 26 66  1  0  0  0  0
 26 67  1  0  0  0  0
 27 68  1  0  0  0  0
 27 69  1  0  0  0  0
 28 70  1  0  0  0  0
 28 71  1  0  0  0  0
M  END
