DB00745
 OpenBabel07062211533D

 34 35  0  0  0  0  0  0  0  0999 V2000
    0.8377   -1.4241    0.8445 S   0  0  2  0  0  0  0  0  0  0  0  0
    0.4932   -2.8315    0.5070 O   0  0  0  0  0  0  0  0  0  0  0  0
    3.8236   -1.5761    1.8726 O   0  0  0  0  0  0  0  0  0  0  0  0
    4.2399   -2.5489   -0.1675 N   0  0  0  0  0  0  0  0  0  0  0  0
   -0.1967   -0.3649   -0.2666 C   0  0  0  0  0  0  0  0  0  0  0  0
    0.1799    1.0776   -0.2252 C   0  0  0  0  0  0  0  0  0  0  0  0
   -1.6879   -0.6299   -0.0634 C   0  0  0  0  0  0  0  0  0  0  0  0
    2.3922   -1.0087    0.0255 C   0  0  0  0  0  0  0  0  0  0  0  0
    0.1683    1.8355   -1.3962 C   0  0  0  0  0  0  0  0  0  0  0  0
   -2.3841   -1.2838   -1.0551 C   0  0  0  0  0  0  0  0  0  0  0  0
    0.5439    1.6689    0.9846 C   0  0  0  0  0  0  0  0  0  0  0  0
   -2.2814   -0.2048    1.1041 C   0  0  0  0  0  0  0  0  0  0  0  0
    0.5208    3.1845   -1.3574 C   0  0  0  0  0  0  0  0  0  0  0  0
   -3.7453   -1.5255   -0.8696 C   0  0  0  0  0  0  0  0  0  0  0  0
    0.8964    3.0179    1.0234 C   0  0  0  0  0  0  0  0  0  0  0  0
   -3.6425   -0.4466    1.2897 C   0  0  0  0  0  0  0  0  0  0  0  0
    0.8848    3.7758   -0.1476 C   0  0  0  0  0  0  0  0  0  0  0  0
   -4.3745   -1.1070    0.3029 C   0  0  0  0  0  0  0  0  0  0  0  0
    3.5445   -1.7220    0.6845 C   0  0  0  0  0  0  0  0  0  0  0  0
    0.0658   -0.7393   -1.2666 H   0  0  0  0  0  0  0  0  0  0  0  0
    2.3204   -1.2736   -1.0339 H   0  0  0  0  0  0  0  0  0  0  0  0
    2.6077    0.0593    0.1024 H   0  0  0  0  0  0  0  0  0  0  0  0
   -0.1148    1.3887   -2.3456 H   0  0  0  0  0  0  0  0  0  0  0  0
   -1.9052   -1.6147   -1.9713 H   0  0  0  0  0  0  0  0  0  0  0  0
    0.5502    1.1194    1.9211 H   0  0  0  0  0  0  0  0  0  0  0  0
   -1.7323    0.2972    1.8926 H   0  0  0  0  0  0  0  0  0  0  0  0
    0.5112    3.7749   -2.2690 H   0  0  0  0  0  0  0  0  0  0  0  0
   -4.3153   -2.0399   -1.6377 H   0  0  0  0  0  0  0  0  0  0  0  0
    1.1763    3.4796    1.9657 H   0  0  0  0  0  0  0  0  0  0  0  0
   -4.1320   -0.1239    2.2040 H   0  0  0  0  0  0  0  0  0  0  0  0
    1.1581    4.8264   -0.1172 H   0  0  0  0  0  0  0  0  0  0  0  0
   -5.4342   -1.2960    0.4478 H   0  0  0  0  0  0  0  0  0  0  0  0
    5.0362   -3.0840    0.1631 H   0  0  0  0  0  0  0  0  0  0  0  0
    3.9948   -2.6606   -1.1459 H   0  0  0  0  0  0  0  0  0  0  0  0
  1  2  2  6  0  0  0
  1  5  1  0  0  0  0
  1  8  1  0  0  0  0
  3 19  2  0  0  0  0
  4 19  1  0  0  0  0
  4 33  1  0  0  0  0
  4 34  1  0  0  0  0
  5  6  1  0  0  0  0
  5  7  1  0  0  0  0
  5 20  1  0  0  0  0
  6  9  2  0  0  0  0
  6 11  1  0  0  0  0
  7 10  2  0  0  0  0
  7 12  1  0  0  0  0
  8 19  1  0  0  0  0
  8 21  1  0  0  0  0
  8 22  1  0  0  0  0
  9 13  1  0  0  0  0
  9 23  1  0  0  0  0
 10 14  1  0  0  0  0
 10 24  1  0  0  0  0
 11 15  2  0  0  0  0
 11 25  1  0  0  0  0
 12 16  2  0  0  0  0
 12 26  1  0  0  0  0
 13 17  2  0  0  0  0
 13 27  1  0  0  0  0
 14 18  2  0  0  0  0
 14 28  1  0  0  0  0
 15 17  1  0  0  0  0
 15 29  1  0  0  0  0
 16 18  1  0  0  0  0
 16 30  1  0  0  0  0
 17 31  1  0  0  0  0
 18 32  1  0  0  0  0
M  END
