DB00845
 OpenBabel07062211533D

 55 59  0  0  1  0  0  0  0  0999 V2000
   -6.4755   -3.0447    0.5020 Cl  0  0  0  0  0  0  0  0  0  0  0  0
    8.2225    2.3957    1.1425 Cl  0  0  0  0  0  0  0  0  0  0  0  0
   -2.1454    0.9448   -0.1236 N   0  3  0  0  0  0  0  0  0  0  0  0
   -0.0360    2.8477   -0.4264 N   0  0  0  0  0  0  0  0  0  0  0  0
    3.3562   -0.4987   -0.5890 N   0  0  0  0  0  0  0  0  0  0  0  0
    1.3840   -2.4316   -0.3091 N   0  0  0  0  0  0  0  0  0  0  0  0
   -0.8123    0.5038   -0.2317 C   0  0  0  0  0  0  0  0  0  0  0  0
    0.2228    1.5759   -0.3859 C   0  0  0  0  0  0  0  0  0  0  0  0
   -2.4288    2.3520   -0.1674 C   0  0  0  0  0  0  0  0  0  0  0  0
   -0.3813   -0.7695   -0.2144 C   0  0  0  0  0  0  0  0  0  0  0  0
    1.0393   -1.1810   -0.3336 C   0  0  0  0  0  0  0  0  0  0  0  0
   -1.3693    3.2666   -0.3188 C   0  0  0  0  0  0  0  0  0  0  0  0
    2.0534   -0.1057   -0.4819 C   0  0  2  0  0  0  0  0  0  0  0  0
    1.6426    1.1657   -0.5026 C   0  0  0  0  0  0  0  0  0  0  0  0
   -3.1743   -0.0039    0.0250 C   0  0  0  0  0  0  0  0  0  0  0  0
   -3.7384    2.8611   -0.0614 C   0  0  0  0  0  0  0  0  0  0  0  0
    0.2710   -3.3534   -0.1577 C   0  0  0  0  0  0  0  0  0  0  0  0
   -1.6293    4.6440   -0.3644 C   0  0  0  0  0  0  0  0  0  0  0  0
   -3.8037   -0.5370   -1.1017 C   0  0  0  0  0  0  0  0  0  0  0  0
   -3.5698   -0.4142    1.2998 C   0  0  0  0  0  0  0  0  0  0  0  0
   -3.9852    4.2349   -0.1081 C   0  0  0  0  0  0  0  0  0  0  0  0
   -2.9310    5.1266   -0.2603 C   0  0  0  0  0  0  0  0  0  0  0  0
    4.5063    0.1857   -0.1799 C   0  0  0  0  0  0  0  0  0  0  0  0
    0.6040   -4.6522   -0.8767 C   0  0  0  0  0  0  0  0  0  0  0  0
    0.0149   -3.5794    1.3250 C   0  0  0  0  0  0  0  0  0  0  0  0
   -4.8241   -1.4764   -0.9544 C   0  0  0  0  0  0  0  0  0  0  0  0
   -4.5903   -1.3535    1.4471 C   0  0  0  0  0  0  0  0  0  0  0  0
   -5.2175   -1.8846    0.3201 C   0  0  0  0  0  0  0  0  0  0  0  0
    5.7167    0.0070   -0.8610 C   0  0  0  0  0  0  0  0  0  0  0  0
    4.4603    1.0566    0.9155 C   0  0  0  0  0  0  0  0  0  0  0  0
    6.8632    0.6883   -0.4527 C   0  0  0  0  0  0  0  0  0  0  0  0
    5.6068    1.7380    1.3239 C   0  0  0  0  0  0  0  0  0  0  0  0
    6.8082    1.5538    0.6397 C   0  0  0  0  0  0  0  0  0  0  0  0
   -1.1564   -1.4949   -0.0354 H   0  0  0  0  0  0  0  0  0  0  0  0
    2.3467    1.9824   -0.6377 H   0  0  0  0  0  0  0  0  0  0  0  0
   -4.5950    2.2032    0.0584 H   0  0  0  0  0  0  0  0  0  0  0  0
   -0.6448   -3.0794   -0.6863 H   0  0  0  0  0  0  0  0  0  0  0  0
   -0.8105    5.3503   -0.4818 H   0  0  0  0  0  0  0  0  0  0  0  0
    3.5097   -1.4260   -0.9718 H   0  0  0  0  0  0  0  0  0  0  0  0
   -3.5065   -0.2270   -2.1004 H   0  0  0  0  0  0  0  0  0  0  0  0
   -3.0889   -0.0079    2.1861 H   0  0  0  0  0  0  0  0  0  0  0  0
   -5.0028    4.6054   -0.0254 H   0  0  0  0  0  0  0  0  0  0  0  0
   -3.1207    6.1950   -0.2968 H   0  0  0  0  0  0  0  0  0  0  0  0
    0.7786   -4.4734   -1.9436 H   0  0  0  0  0  0  0  0  0  0  0  0
   -0.2104   -5.3782   -0.7814 H   0  0  0  0  0  0  0  0  0  0  0  0
    1.5134   -5.1080   -0.4691 H   0  0  0  0  0  0  0  0  0  0  0  0
   -0.8048   -4.2908    1.4712 H   0  0  0  0  0  0  0  0  0  0  0  0
   -0.2494   -2.6562    1.8493 H   0  0  0  0  0  0  0  0  0  0  0  0
    0.9038   -3.9889    1.8187 H   0  0  0  0  0  0  0  0  0  0  0  0
   -5.3036   -1.8820   -1.8415 H   0  0  0  0  0  0  0  0  0  0  0  0
   -4.8860   -1.6627    2.4463 H   0  0  0  0  0  0  0  0  0  0  0  0
    5.7734   -0.6643   -1.7146 H   0  0  0  0  0  0  0  0  0  0  0  0
    3.5507    1.2010    1.4925 H   0  0  0  0  0  0  0  0  0  0  0  0
    7.7924    0.5354   -0.9955 H   0  0  0  0  0  0  0  0  0  0  0  0
    5.5511    2.4044    2.1809 H   0  0  0  0  0  0  0  0  0  0  0  0
  1 28  1  0  0  0  0
  2 33  1  0  0  0  0
  3  7  1  0  0  0  0
  3  9  2  0  0  0  0
  3 15  1  0  0  0  0
  4  8  1  0  0  0  0
  4 12  2  0  0  0  0
  5 23  1  0  0  0  0
  5 39  1  0  0  0  0
  6 11  2  0  0  0  0
  6 17  1  0  0  0  0
  7  8  1  0  0  0  0
  7 10  2  0  0  0  0
  8 14  2  0  0  0  0
  9 12  1  0  0  0  0
  9 16  1  0  0  0  0
 10 11  1  0  0  0  0
 10 34  1  0  0  0  0
 11 13  1  0  0  0  0
 12 18  1  0  0  0  0
 13  5  1  6  0  0  0
 13 14  1  0  0  0  0
 14 35  1  0  0  0  0
 15 19  2  0  0  0  0
 15 20  1  0  0  0  0
 16 21  2  0  0  0  0
 16 36  1  0  0  0  0
 17 24  1  0  0  0  0
 17 25  1  0  0  0  0
 17 37  1  0  0  0  0
 18 22  2  0  0  0  0
 18 38  1  0  0  0  0
 19 26  1  0  0  0  0
 19 40  1  0  0  0  0
 20 27  2  0  0  0  0
 20 41  1  0  0  0  0
 21 22  1  0  0  0  0
 21 42  1  0  0  0  0
 22 43  1  0  0  0  0
 23 29  2  0  0  0  0
 23 30  1  0  0  0  0
 24 44  1  0  0  0  0
 24 45  1  0  0  0  0
 24 46  1  0  0  0  0
 25 47  1  0  0  0  0
 25 48  1  0  0  0  0
 25 49  1  0  0  0  0
 26 28  2  0  0  0  0
 26 50  1  0  0  0  0
 27 28  1  0  0  0  0
 27 51  1  0  0  0  0
 29 31  1  0  0  0  0
 29 52  1  0  0  0  0
 30 32  2  0  0  0  0
 30 53  1  0  0  0  0
 31 33  2  0  0  0  0
 31 54  1  0  0  0  0
 32 33  1  0  0  0  0
 32 55  1  0  0  0  0
M  CHG  1   3   1
M  END
