DB00843
 OpenBabel07062211533D

 57 60  0  0  1  0  0  0  0  0999 V2000
   -2.4250   -1.7632   -2.5098 O   0  0  0  0  0  0  0  0  0  0  0  0
   -6.5744    1.4847    1.1613 O   0  0  0  0  0  0  0  0  0  0  0  0
   -7.2483   -0.0890   -1.0239 O   0  0  0  0  0  0  0  0  0  0  0  0
    3.8018   -0.8824    0.6438 N   0  0  0  0  0  0  0  0  0  0  0  0
    0.8868   -1.0924    0.4112 C   0  0  0  0  0  0  0  0  0  0  0  0
   -0.3433   -1.6139   -0.3263 C   0  0  0  0  0  0  0  0  0  0  0  0
   -1.2243   -0.4767   -0.8074 C   0  0  2  0  0  0  0  0  0  0  0  0
    1.7570   -2.2478    0.9172 C   0  0  0  0  0  0  0  0  0  0  0  0
    1.7196   -0.1726   -0.4882 C   0  0  0  0  0  0  0  0  0  0  0  0
    3.0415   -1.7326    1.5697 C   0  0  0  0  0  0  0  0  0  0  0  0
    3.0056    0.2737    0.2104 C   0  0  0  0  0  0  0  0  0  0  0  0
   -1.8102    0.3551    0.3568 C   0  0  0  0  0  0  0  0  0  0  0  0
   -2.4342   -1.0000   -1.5609 C   0  0  0  0  0  0  0  0  0  0  0  0
   -3.2850    0.3448    0.1074 C   0  0  0  0  0  0  0  0  0  0  0  0
   -3.6445   -0.4377   -0.9827 C   0  0  0  0  0  0  0  0  0  0  0  0
    5.0509   -0.4402    1.2633 C   0  0  0  0  0  0  0  0  0  0  0  0
   -4.2653    0.9968    0.8378 C   0  0  0  0  0  0  0  0  0  0  0  0
   -4.9550   -0.6068   -1.3897 C   0  0  0  0  0  0  0  0  0  0  0  0
    5.8944    0.3661    0.3118 C   0  0  0  0  0  0  0  0  0  0  0  0
   -5.6008    0.8472    0.4492 C   0  0  0  0  0  0  0  0  0  0  0  0
   -5.9428    0.0506   -0.6565 C   0  0  0  0  0  0  0  0  0  0  0  0
    6.8213   -0.2793   -0.4949 C   0  0  0  0  0  0  0  0  0  0  0  0
    5.7333    1.7435    0.2547 C   0  0  0  0  0  0  0  0  0  0  0  0
    7.6027    0.4678   -1.3763 C   0  0  0  0  0  0  0  0  0  0  0  0
    6.5146    2.4905   -0.6270 C   0  0  0  0  0  0  0  0  0  0  0  0
    7.4493    1.8527   -1.4424 C   0  0  0  0  0  0  0  0  0  0  0  0
   -6.9300    2.7982    0.7373 C   0  0  0  0  0  0  0  0  0  0  0  0
   -7.9739   -1.1668   -0.4369 C   0  0  0  0  0  0  0  0  0  0  0  0
    0.5737   -0.5159    1.2908 H   0  0  0  0  0  0  0  0  0  0  0  0
   -0.0337   -2.2272   -1.1828 H   0  0  0  0  0  0  0  0  0  0  0  0
   -0.9156   -2.2828    0.3301 H   0  0  0  0  0  0  0  0  0  0  0  0
   -0.7079    0.1825   -1.5140 H   0  0  0  0  0  0  0  0  0  0  0  0
    1.1964   -2.8477    1.6440 H   0  0  0  0  0  0  0  0  0  0  0  0
    2.0152   -2.9161    0.0852 H   0  0  0  0  0  0  0  0  0  0  0  0
    1.9692   -0.6851   -1.4264 H   0  0  0  0  0  0  0  0  0  0  0  0
    1.1647    0.7338   -0.7508 H   0  0  0  0  0  0  0  0  0  0  0  0
    2.7938   -1.1864    2.4894 H   0  0  0  0  0  0  0  0  0  0  0  0
    3.6468   -2.6002    1.8594 H   0  0  0  0  0  0  0  0  0  0  0  0
    2.7594    0.9286    1.0564 H   0  0  0  0  0  0  0  0  0  0  0  0
    3.5275    0.8690   -0.5429 H   0  0  0  0  0  0  0  0  0  0  0  0
   -1.6115   -0.0872    1.3383 H   0  0  0  0  0  0  0  0  0  0  0  0
   -1.4164    1.3767    0.3371 H   0  0  0  0  0  0  0  0  0  0  0  0
    4.8612    0.1457    2.1737 H   0  0  0  0  0  0  0  0  0  0  0  0
    5.6348   -1.3116    1.5895 H   0  0  0  0  0  0  0  0  0  0  0  0
   -4.0020    1.6086    1.6951 H   0  0  0  0  0  0  0  0  0  0  0  0
   -5.2074   -1.2238   -2.2450 H   0  0  0  0  0  0  0  0  0  0  0  0
    6.9477   -1.3575   -0.4532 H   0  0  0  0  0  0  0  0  0  0  0  0
    5.0212    2.2571    0.8947 H   0  0  0  0  0  0  0  0  0  0  0  0
    8.3305   -0.0287   -2.0115 H   0  0  0  0  0  0  0  0  0  0  0  0
    6.3978    3.5692   -0.6758 H   0  0  0  0  0  0  0  0  0  0  0  0
    8.0583    2.4344   -2.1284 H   0  0  0  0  0  0  0  0  0  0  0  0
   -7.7206    3.1686    1.3955 H   0  0  0  0  0  0  0  0  0  0  0  0
   -6.0698    3.4710    0.8107 H   0  0  0  0  0  0  0  0  0  0  0  0
   -7.3087    2.7831   -0.2897 H   0  0  0  0  0  0  0  0  0  0  0  0
   -8.9975   -1.1398   -0.8205 H   0  0  0  0  0  0  0  0  0  0  0  0
   -7.5231   -2.1262   -0.7097 H   0  0  0  0  0  0  0  0  0  0  0  0
   -8.0058   -1.0626    0.6523 H   0  0  0  0  0  0  0  0  0  0  0  0
  1 13  2  0  0  0  0
  2 20  1  0  0  0  0
  2 27  1  0  0  0  0
  3 21  1  0  0  0  0
  3 28  1  0  0  0  0
  4 10  1  0  0  0  0
  4 11  1  0  0  0  0
  4 16  1  0  0  0  0
  5  6  1  0  0  0  0
  5  8  1  0  0  0  0
  5  9  1  0  0  0  0
  5 29  1  0  0  0  0
  6  7  1  0  0  0  0
  6 30  1  0  0  0  0
  6 31  1  0  0  0  0
  7 12  1  0  0  0  0
  7 13  1  0  0  0  0
  7 32  1  6  0  0  0
  8 10  1  0  0  0  0
  8 33  1  0  0  0  0
  8 34  1  0  0  0  0
  9 11  1  0  0  0  0
  9 35  1  0  0  0  0
  9 36  1  0  0  0  0
 10 37  1  0  0  0  0
 10 38  1  0  0  0  0
 11 39  1  0  0  0  0
 11 40  1  0  0  0  0
 12 14  1  0  0  0  0
 12 41  1  0  0  0  0
 12 42  1  0  0  0  0
 13 15  1  0  0  0  0
 14 15  2  0  0  0  0
 14 17  1  0  0  0  0
 15 18  1  0  0  0  0
 16 19  1  0  0  0  0
 16 43  1  0  0  0  0
 16 44  1  0  0  0  0
 17 20  2  0  0  0  0
 17 45  1  0  0  0  0
 18 21  2  0  0  0  0
 18 46  1  0  0  0  0
 19 22  2  0  0  0  0
 19 23  1  0  0  0  0
 20 21  1  0  0  0  0
 22 24  1  0  0  0  0
 22 47  1  0  0  0  0
 23 25  2  0  0  0  0
 23 48  1  0  0  0  0
 24 26  2  0  0  0  0
 24 49  1  0  0  0  0
 25 26  1  0  0  0  0
 25 50  1  0  0  0  0
 26 51  1  0  0  0  0
 27 52  1  0  0  0  0
 27 53  1  0  0  0  0
 27 54  1  0  0  0  0
 28 55  1  0  0  0  0
 28 56  1  0  0  0  0
 28 57  1  0  0  0  0
M  END
