DB00672
 OpenBabel07062211533D

 30 30  0  0  0  0  0  0  0  0999 V2000
    4.4982    3.2754    0.1523 Cl  0  0  0  0  0  0  0  0  0  0  0  0
    1.6250   -2.2811    0.0304 S   0  0  0  0  0  0  0  0  0  0  0  0
    1.5898   -2.8008    1.3838 O   0  0  0  0  0  0  0  0  0  0  0  0
    2.2397   -3.0477   -1.0360 O   0  0  0  0  0  0  0  0  0  0  0  0
   -0.7973   -1.1970    1.6440 O   0  0  0  0  0  0  0  0  0  0  0  0
    0.0471   -1.8232   -0.4416 N   0  0  0  0  0  0  0  0  0  0  0  0
   -2.1493   -1.0452   -0.2250 N   0  0  0  0  0  0  0  0  0  0  0  0
   -3.3221   -0.5349    0.4451 C   0  0  0  0  0  0  0  0  0  0  0  0
    2.4367   -0.7113    0.0649 C   0  0  0  0  0  0  0  0  0  0  0  0
   -3.3446    0.9880    0.4967 C   0  0  0  0  0  0  0  0  0  0  0  0
   -0.9722   -1.3369    0.4373 C   0  0  0  0  0  0  0  0  0  0  0  0
    2.4388    0.0228    1.2383 C   0  0  0  0  0  0  0  0  0  0  0  0
    3.0554   -0.2450   -1.0823 C   0  0  0  0  0  0  0  0  0  0  0  0
   -3.3570    1.6234   -0.8865 C   0  0  0  0  0  0  0  0  0  0  0  0
    3.0792    1.2616    1.2654 C   0  0  0  0  0  0  0  0  0  0  0  0
    3.6959    0.9939   -1.0551 C   0  0  0  0  0  0  0  0  0  0  0  0
    3.7079    1.7472    0.1187 C   0  0  0  0  0  0  0  0  0  0  0  0
   -3.3569   -0.9388    1.4627 H   0  0  0  0  0  0  0  0  0  0  0  0
   -4.1954   -0.9130   -0.0969 H   0  0  0  0  0  0  0  0  0  0  0  0
   -4.2357    1.3125    1.0460 H   0  0  0  0  0  0  0  0  0  0  0  0
   -2.4724    1.3570    1.0493 H   0  0  0  0  0  0  0  0  0  0  0  0
   -0.1963   -1.9470   -1.4326 H   0  0  0  0  0  0  0  0  0  0  0  0
   -2.1919   -1.1900   -1.2291 H   0  0  0  0  0  0  0  0  0  0  0  0
    1.9521   -0.3359    2.1399 H   0  0  0  0  0  0  0  0  0  0  0  0
    3.0505   -0.8121   -2.0080 H   0  0  0  0  0  0  0  0  0  0  0  0
   -4.2120    1.2710   -1.4722 H   0  0  0  0  0  0  0  0  0  0  0  0
   -3.4321    2.7120   -0.7990 H   0  0  0  0  0  0  0  0  0  0  0  0
   -2.4412    1.3959   -1.4408 H   0  0  0  0  0  0  0  0  0  0  0  0
    3.0797    1.8385    2.1868 H   0  0  0  0  0  0  0  0  0  0  0  0
    4.1801    1.3605   -1.9566 H   0  0  0  0  0  0  0  0  0  0  0  0
  1 17  1  0  0  0  0
  2  3  2  0  0  0  0
  2  4  2  0  0  0  0
  2  6  1  0  0  0  0
  2  9  1  0  0  0  0
  5 11  2  0  0  0  0
  6 11  1  0  0  0  0
  6 22  1  0  0  0  0
  7  8  1  0  0  0  0
  7 11  1  0  0  0  0
  7 23  1  0  0  0  0
  8 10  1  0  0  0  0
  8 18  1  0  0  0  0
  8 19  1  0  0  0  0
  9 12  2  0  0  0  0
  9 13  1  0  0  0  0
 10 14  1  0  0  0  0
 10 20  1  0  0  0  0
 10 21  1  0  0  0  0
 12 15  1  0  0  0  0
 12 24  1  0  0  0  0
 13 16  2  0  0  0  0
 13 25  1  0  0  0  0
 14 26  1  0  0  0  0
 14 27  1  0  0  0  0
 14 28  1  0  0  0  0
 15 17  2  0  0  0  0
 15 29  1  0  0  0  0
 16 17  1  0  0  0  0
 16 30  1  0  0  0  0
M  END
