DB00591
 OpenBabel07062211533D

 62 66  0  0  1  0  0  0  0  0999 V2000
    1.5826   -0.5308    1.3661 F   0  0  0  0  0  0  0  0  0  0  0  0
    3.7916   -2.9206   -1.5015 F   0  0  0  0  0  0  0  0  0  0  0  0
   -2.7870   -0.3919    0.9289 O   0  0  0  0  0  0  0  0  0  0  0  0
   -3.3805   -1.9399   -0.7368 O   0  0  0  0  0  0  0  0  0  0  0  0
    1.3288    2.6901   -0.2061 O   0  0  0  0  0  0  0  0  0  0  0  0
   -4.4775    1.2521   -1.3254 O   0  0  0  0  0  0  0  0  0  0  0  0
   -4.8381    2.9412    0.8236 O   0  0  0  0  0  0  0  0  0  0  0  0
    6.2269   -1.4811    2.5030 O   0  0  0  0  0  0  0  0  0  0  0  0
   -1.1118    0.7705   -0.4769 C   0  0  1  0  0  0  0  0  0  0  0  0
   -0.3693   -0.5691   -0.6817 C   0  0  2  0  0  0  0  0  0  0  0  0
    1.1333   -0.3964   -0.9437 C   0  0  1  0  0  0  0  0  0  0  0  0
   -2.5621    0.2433   -0.3270 C   0  0  1  0  0  0  0  0  0  0  0  0
    1.7846    0.3199    0.2901 C   0  0  1  0  0  0  0  0  0  0  0  0
   -2.6731   -0.8755   -1.3663 C   0  0  1  0  0  0  0  0  0  0  0  0
   -1.2299   -1.3031   -1.7126 C   0  0  0  0  0  0  0  0  0  0  0  0
   -0.5089    1.4424    0.7708 C   0  0  0  0  0  0  0  0  0  0  0  0
    1.0245    1.6243    0.6802 C   0  0  2  0  0  0  0  0  0  0  0  0
    3.3523    0.4467    0.1403 C   0  0  1  0  0  0  0  0  0  0  0  0
    1.7928   -1.7607   -1.2028 C   0  0  0  0  0  0  0  0  0  0  0  0
   -1.0290    1.7148   -1.7074 C   0  0  0  0  0  0  0  0  0  0  0  0
    3.3043   -1.6543   -1.3492 C   0  0  1  0  0  0  0  0  0  0  0  0
   -3.6141    1.3064   -0.4508 C   0  0  0  0  0  0  0  0  0  0  0  0
   -3.4638   -1.6221    0.6538 C   0  0  0  0  0  0  0  0  0  0  0  0
    3.9026   -0.9568   -0.1527 C   0  0  0  0  0  0  0  0  0  0  0  0
    3.8023    1.3836   -1.0045 C   0  0  0  0  0  0  0  0  0  0  0  0
    3.9552    1.0203    1.4147 C   0  0  0  0  0  0  0  0  0  0  0  0
   -3.5473    2.4359    0.5549 C   0  0  0  0  0  0  0  0  0  0  0  0
   -4.9301   -1.4738    1.0421 C   0  0  0  0  0  0  0  0  0  0  0  0
   -2.8139   -2.7480    1.4529 C   0  0  0  0  0  0  0  0  0  0  0  0
    4.8223   -1.5671    0.6114 C   0  0  0  0  0  0  0  0  0  0  0  0
    4.8693    0.4146    2.1786 C   0  0  0  0  0  0  0  0  0  0  0  0
    5.3766   -0.9214    1.8190 C   0  0  0  0  0  0  0  0  0  0  0  0
   -0.4472   -1.1558    0.2463 H   0  0  0  0  0  0  0  0  0  0  0  0
    1.2803    0.2105   -1.8422 H   0  0  0  0  0  0  0  0  0  0  0  0
   -3.1994   -0.6065   -2.2875 H   0  0  0  0  0  0  0  0  0  0  0  0
   -0.9707   -0.9727   -2.7248 H   0  0  0  0  0  0  0  0  0  0  0  0
   -1.0934   -2.3879   -1.6599 H   0  0  0  0  0  0  0  0  0  0  0  0
   -0.7254    0.8430    1.6636 H   0  0  0  0  0  0  0  0  0  0  0  0
   -0.9508    2.4301    0.9286 H   0  0  0  0  0  0  0  0  0  0  0  0
    1.3419    1.9328    1.6840 H   0  0  0  0  0  0  0  0  0  0  0  0
    1.3857   -2.2150   -2.1143 H   0  0  0  0  0  0  0  0  0  0  0  0
    1.5554   -2.4613   -0.3909 H   0  0  0  0  0  0  0  0  0  0  0  0
   -1.5930    1.3327   -2.5649 H   0  0  0  0  0  0  0  0  0  0  0  0
   -1.4331    2.7054   -1.4763 H   0  0  0  0  0  0  0  0  0  0  0  0
   -0.0082    1.8697   -2.0613 H   0  0  0  0  0  0  0  0  0  0  0  0
    3.5615   -1.1130   -2.2655 H   0  0  0  0  0  0  0  0  0  0  0  0
    3.2444    1.2166   -1.9305 H   0  0  0  0  0  0  0  0  0  0  0  0
    3.7020    2.4431   -0.7486 H   0  0  0  0  0  0  0  0  0  0  0  0
    4.8643    1.2331   -1.2409 H   0  0  0  0  0  0  0  0  0  0  0  0
    3.6368    2.0151    1.7183 H   0  0  0  0  0  0  0  0  0  0  0  0
    1.9471    3.2856    0.2503 H   0  0  0  0  0  0  0  0  0  0  0  0
   -2.9401    3.2494    0.1541 H   0  0  0  0  0  0  0  0  0  0  0  0
   -3.1321    2.0938    1.5053 H   0  0  0  0  0  0  0  0  0  0  0  0
   -5.0356   -1.1837    2.0927 H   0  0  0  0  0  0  0  0  0  0  0  0
   -5.4218   -0.7012    0.4423 H   0  0  0  0  0  0  0  0  0  0  0  0
   -5.4814   -2.4045    0.8695 H   0  0  0  0  0  0  0  0  0  0  0  0
   -1.7650   -2.8727    1.1635 H   0  0  0  0  0  0  0  0  0  0  0  0
   -2.8294   -2.5334    2.5265 H   0  0  0  0  0  0  0  0  0  0  0  0
   -3.3119   -3.7057    1.2685 H   0  0  0  0  0  0  0  0  0  0  0  0
    5.1863   -2.5636    0.3859 H   0  0  0  0  0  0  0  0  0  0  0  0
    5.2650    0.8898    3.0687 H   0  0  0  0  0  0  0  0  0  0  0  0
   -5.3462    2.2326    1.2544 H   0  0  0  0  0  0  0  0  0  0  0  0
  1 13  1  0  0  0  0
  2 21  1  0  0  0  0
  3 12  1  0  0  0  0
  3 23  1  0  0  0  0
  4 14  1  0  0  0  0
  4 23  1  0  0  0  0
  5 17  1  0  0  0  0
  5 51  1  0  0  0  0
  6 22  2  0  0  0  0
  7 27  1  0  0  0  0
  7 62  1  0  0  0  0
  8 32  2  0  0  0  0
  9 10  1  6  0  0  0
  9 16  1  0  0  0  0
  9 20  1  0  0  0  0
 10 11  1  6  0  0  0
 10 15  1  0  0  0  0
 10 33  1  0  0  0  0
 11 13  1  1  0  0  0
 11 19  1  0  0  0  0
 11 34  1  0  0  0  0
 12  9  1  6  0  0  0
 12 22  1  0  0  0  0
 13 17  1  1  0  0  0
 14 12  1  1  0  0  0
 14 15  1  0  0  0  0
 14 35  1  0  0  0  0
 15 36  1  0  0  0  0
 15 37  1  0  0  0  0
 16 17  1  0  0  0  0
 16 38  1  0  0  0  0
 16 39  1  0  0  0  0
 17 40  1  1  0  0  0
 18 13  1  1  0  0  0
 18 24  1  0  0  0  0
 18 25  1  0  0  0  0
 18 26  1  0  0  0  0
 19 21  1  0  0  0  0
 19 41  1  0  0  0  0
 19 42  1  0  0  0  0
 20 43  1  0  0  0  0
 20 44  1  0  0  0  0
 20 45  1  0  0  0  0
 21 24  1  0  0  0  0
 21 46  1  6  0  0  0
 22 27  1  0  0  0  0
 23 28  1  0  0  0  0
 23 29  1  0  0  0  0
 24 30  2  0  0  0  0
 25 47  1  0  0  0  0
 25 48  1  0  0  0  0
 25 49  1  0  0  0  0
 26 31  2  0  0  0  0
 26 50  1  0  0  0  0
 27 52  1  0  0  0  0
 27 53  1  0  0  0  0
 28 54  1  0  0  0  0
 28 55  1  0  0  0  0
 28 56  1  0  0  0  0
 29 57  1  0  0  0  0
 29 58  1  0  0  0  0
 29 59  1  0  0  0  0
 30 32  1  0  0  0  0
 30 60  1  0  0  0  0
 31 32  1  0  0  0  0
 31 61  1  0  0  0  0
M  END
