DB00252
 OpenBabel07062211533D

 31 33  0  0  0  0  0  0  0  0999 V2000
   -0.0126   -1.4882   -2.3795 O   0  0  0  0  0  0  0  0  0  0  0  0
   -0.0038   -4.0436    1.4134 O   0  0  0  0  0  0  0  0  0  0  0  0
   -0.0155   -1.7316    1.0847 N   0  0  0  0  0  0  0  0  0  0  0  0
    0.0175   -3.0619   -0.6907 N   0  0  0  0  0  0  0  0  0  0  0  0
   -0.0014   -0.7714   -0.0193 C   0  0  0  0  0  0  0  0  0  0  0  0
   -1.2775    0.0742   -0.1073 C   0  0  0  0  0  0  0  0  0  0  0  0
    1.2728    0.0704    0.1000 C   0  0  0  0  0  0  0  0  0  0  0  0
    0.0040   -1.7827   -1.1901 C   0  0  0  0  0  0  0  0  0  0  0  0
    0.0000   -3.0639    0.6811 C   0  0  0  0  0  0  0  0  0  0  0  0
   -1.4416    0.9821   -1.1536 C   0  0  0  0  0  0  0  0  0  0  0  0
    1.4409    0.9418    1.1797 C   0  0  0  0  0  0  0  0  0  0  0  0
   -2.2743   -0.0644    0.8586 C   0  0  0  0  0  0  0  0  0  0  0  0
    2.2743   -0.0285   -0.8700 C   0  0  0  0  0  0  0  0  0  0  0  0
   -2.6025    1.7513   -1.2339 C   0  0  0  0  0  0  0  0  0  0  0  0
    2.6012    1.7084    1.2885 C   0  0  0  0  0  0  0  0  0  0  0  0
   -3.4352    0.7049    0.7781 C   0  0  0  0  0  0  0  0  0  0  0  0
    3.4346    0.7380   -0.7610 C   0  0  0  0  0  0  0  0  0  0  0  0
   -3.5992    1.6127   -0.2682 C   0  0  0  0  0  0  0  0  0  0  0  0
    3.5979    1.6064    0.3184 C   0  0  0  0  0  0  0  0  0  0  0  0
   -0.0196   -1.4596    2.0636 H   0  0  0  0  0  0  0  0  0  0  0  0
    0.0249   -3.8980   -1.2633 H   0  0  0  0  0  0  0  0  0  0  0  0
   -0.6756    1.1095   -1.9133 H   0  0  0  0  0  0  0  0  0  0  0  0
    0.6764    1.0333    1.9468 H   0  0  0  0  0  0  0  0  0  0  0  0
   -2.1884   -0.7571    1.6895 H   0  0  0  0  0  0  0  0  0  0  0  0
    2.2038   -0.6946   -1.7221 H   0  0  0  0  0  0  0  0  0  0  0  0
   -2.7297    2.4593   -2.0477 H   0  0  0  0  0  0  0  0  0  0  0  0
    2.7288    2.3840    2.1292 H   0  0  0  0  0  0  0  0  0  0  0  0
   -4.2116    0.5976    1.5299 H   0  0  0  0  0  0  0  0  0  0  0  0
    4.2125    0.6572   -1.5146 H   0  0  0  0  0  0  0  0  0  0  0  0
   -4.5028    2.2119   -0.3305 H   0  0  0  0  0  0  0  0  0  0  0  0
    4.5017    2.2026    0.4035 H   0  0  0  0  0  0  0  0  0  0  0  0
  1  8  2  0  0  0  0
  2  9  2  0  0  0  0
  3  5  1  0  0  0  0
  3  9  1  0  0  0  0
  3 20  1  0  0  0  0
  4  8  1  0  0  0  0
  4  9  1  0  0  0  0
  4 21  1  0  0  0  0
  5  6  1  0  0  0  0
  5  7  1  0  0  0  0
  5  8  1  0  0  0  0
  6 10  2  0  0  0  0
  6 12  1  0  0  0  0
  7 11  2  0  0  0  0
  7 13  1  0  0  0  0
 10 14  1  0  0  0  0
 10 22  1  0  0  0  0
 11 15  1  0  0  0  0
 11 23  1  0  0  0  0
 12 16  2  0  0  0  0
 12 24  1  0  0  0  0
 13 17  2  0  0  0  0
 13 25  1  0  0  0  0
 14 18  2  0  0  0  0
 14 26  1  0  0  0  0
 15 19  2  0  0  0  0
 15 27  1  0  0  0  0
 16 18  1  0  0  0  0
 16 28  1  0  0  0  0
 17 19  1  0  0  0  0
 17 29  1  0  0  0  0
 18 30  1  0  0  0  0
 19 31  1  0  0  0  0
M  END
