DB00331
 OpenBabel07062211533D

 20 19  0  0  0  0  0  0  0  0999 V2000
   -1.2610   -0.2204   -0.2464 N   0  0  0  0  0  0  0  0  0  0  0  0
    0.9677    0.1314   -1.1246 N   0  0  0  0  0  0  0  0  0  0  0  0
   -0.4578    1.8766   -1.0761 N   0  0  0  0  0  0  0  0  0  0  0  0
    3.1591   -0.2696   -0.4342 N   0  0  0  0  0  0  0  0  0  0  0  0
    1.7438    0.6850    1.0830 N   0  0  0  0  0  0  0  0  0  0  0  0
   -1.0063   -1.6314    0.0212 C   0  0  0  0  0  0  0  0  0  0  0  0
   -2.5427    0.3017    0.2159 C   0  0  0  0  0  0  0  0  0  0  0  0
   -0.2906    0.6124   -0.8141 C   0  0  0  0  0  0  0  0  0  0  0  0
    1.8862    0.1898   -0.1943 C   0  0  0  0  0  0  0  0  0  0  0  0
   -0.3786   -2.0769   -0.7577 H   0  0  0  0  0  0  0  0  0  0  0  0
   -1.9359   -2.2101    0.0458 H   0  0  0  0  0  0  0  0  0  0  0  0
   -0.5024   -1.7446    0.9860 H   0  0  0  0  0  0  0  0  0  0  0  0
   -3.1508   -0.4685    0.7021 H   0  0  0  0  0  0  0  0  0  0  0  0
   -3.1185    0.6950   -0.6282 H   0  0  0  0  0  0  0  0  0  0  0  0
   -2.3865    1.1028    0.9459 H   0  0  0  0  0  0  0  0  0  0  0  0
   -1.4028    2.1739   -0.8210 H   0  0  0  0  0  0  0  0  0  0  0  0
    3.8798   -0.2303    0.2782 H   0  0  0  0  0  0  0  0  0  0  0  0
    3.4131   -0.6633   -1.3336 H   0  0  0  0  0  0  0  0  0  0  0  0
    0.8633    1.0606    1.4174 H   0  0  0  0  0  0  0  0  0  0  0  0
    2.5210    0.6859    1.7347 H   0  0  0  0  0  0  0  0  0  0  0  0
  1  6  1  0  0  0  0
  1  7  1  0  0  0  0
  1  8  1  0  0  0  0
  2  8  1  0  0  0  0
  2  9  2  0  0  0  0
  3  8  2  0  0  0  0
  3 16  1  0  0  0  0
  4  9  1  0  0  0  0
  4 17  1  0  0  0  0
  4 18  1  0  0  0  0
  5  9  1  0  0  0  0
  5 19  1  0  0  0  0
  5 20  1  0  0  0  0
  6 10  1  0  0  0  0
  6 11  1  0  0  0  0
  6 12  1  0  0  0  0
  7 13  1  0  0  0  0
  7 14  1  0  0  0  0
  7 15  1  0  0  0  0
M  END
