DB00414
 OpenBabel07062211533D

 42 43  0  0  0  0  0  0  0  0999 V2000
    1.2789   -3.0811    0.2006 S   0  0  0  0  0  0  0  0  0  0  0  0
   -0.5699   -1.3004    1.9494 O   0  0  0  0  0  0  0  0  0  0  0  0
    1.3202   -3.4557    1.6010 O   0  0  0  0  0  0  0  0  0  0  0  0
    1.5401   -4.0654   -0.8318 O   0  0  0  0  0  0  0  0  0  0  0  0
    5.6758    1.6127   -1.7657 O   0  0  0  0  0  0  0  0  0  0  0  0
   -2.1049   -0.9879    0.2494 N   0  0  0  0  0  0  0  0  0  0  0  0
   -0.2021   -2.2948   -0.1319 N   0  0  0  0  0  0  0  0  0  0  0  0
   -3.0207   -0.1485    0.9893 C   0  0  0  0  0  0  0  0  0  0  0  0
   -2.6228    1.3276    0.8832 C   0  0  0  0  0  0  0  0  0  0  0  0
   -4.4653   -0.3689    0.5282 C   0  0  0  0  0  0  0  0  0  0  0  0
   -2.8922    1.9077   -0.5051 C   0  0  0  0  0  0  0  0  0  0  0  0
   -4.7316    0.2140   -0.8599 C   0  0  0  0  0  0  0  0  0  0  0  0
   -4.3385    1.6861   -0.9373 C   0  0  0  0  0  0  0  0  0  0  0  0
   -0.9443   -1.4987    0.7974 C   0  0  0  0  0  0  0  0  0  0  0  0
    2.4267   -1.7606   -0.0499 C   0  0  0  0  0  0  0  0  0  0  0  0
    2.7668   -0.9493    1.0188 C   0  0  0  0  0  0  0  0  0  0  0  0
    2.9635   -1.5615   -1.3102 C   0  0  0  0  0  0  0  0  0  0  0  0
    4.2224    0.3091   -0.4422 C   0  0  0  0  0  0  0  0  0  0  0  0
    3.6717    0.0937    0.8210 C   0  0  0  0  0  0  0  0  0  0  0  0
    3.8685   -0.5185   -1.5077 C   0  0  0  0  0  0  0  0  0  0  0  0
    5.1665    1.3959   -0.6480 C   0  0  0  0  0  0  0  0  0  0  0  0
    5.5586    2.3038    0.5127 C   0  0  0  0  0  0  0  0  0  0  0  0
   -2.9521   -0.4435    2.0439 H   0  0  0  0  0  0  0  0  0  0  0  0
   -1.5630    1.4601    1.1320 H   0  0  0  0  0  0  0  0  0  0  0  0
   -3.1951    1.9038    1.6216 H   0  0  0  0  0  0  0  0  0  0  0  0
   -5.1452    0.1071    1.2462 H   0  0  0  0  0  0  0  0  0  0  0  0
   -4.7049   -1.4390    0.5247 H   0  0  0  0  0  0  0  0  0  0  0  0
   -2.2169    1.4465   -1.2361 H   0  0  0  0  0  0  0  0  0  0  0  0
   -2.6703    2.9810   -0.5029 H   0  0  0  0  0  0  0  0  0  0  0  0
   -5.7955    0.1075   -1.1012 H   0  0  0  0  0  0  0  0  0  0  0  0
   -4.1806   -0.3536   -1.6188 H   0  0  0  0  0  0  0  0  0  0  0  0
   -5.0045    2.2748   -0.2945 H   0  0  0  0  0  0  0  0  0  0  0  0
   -4.4781    2.0519   -1.9607 H   0  0  0  0  0  0  0  0  0  0  0  0
   -2.2930   -1.1761   -0.7303 H   0  0  0  0  0  0  0  0  0  0  0  0
   -0.6080   -2.4425   -1.0647 H   0  0  0  0  0  0  0  0  0  0  0  0
    2.3459   -1.0986    2.0082 H   0  0  0  0  0  0  0  0  0  0  0  0
    2.6946   -2.1891   -2.1541 H   0  0  0  0  0  0  0  0  0  0  0  0
    3.9188    0.7142    1.6769 H   0  0  0  0  0  0  0  0  0  0  0  0
    4.2826   -0.3696   -2.5015 H   0  0  0  0  0  0  0  0  0  0  0  0
    6.0446    1.7222    1.3003 H   0  0  0  0  0  0  0  0  0  0  0  0
    4.6801    2.8309    0.8939 H   0  0  0  0  0  0  0  0  0  0  0  0
    6.2731    3.0524    0.1558 H   0  0  0  0  0  0  0  0  0  0  0  0
  1  3  2  0  0  0  0
  1  4  2  0  0  0  0
  1  7  1  0  0  0  0
  1 15  1  0  0  0  0
  2 14  2  0  0  0  0
  5 21  2  0  0  0  0
  6  8  1  0  0  0  0
  6 14  1  0  0  0  0
  6 34  1  0  0  0  0
  7 14  1  0  0  0  0
  7 35  1  0  0  0  0
  8  9  1  0  0  0  0
  8 10  1  0  0  0  0
  8 23  1  0  0  0  0
  9 11  1  0  0  0  0
  9 24  1  0  0  0  0
  9 25  1  0  0  0  0
 10 12  1  0  0  0  0
 10 26  1  0  0  0  0
 10 27  1  0  0  0  0
 11 13  1  0  0  0  0
 11 28  1  0  0  0  0
 11 29  1  0  0  0  0
 12 13  1  0  0  0  0
 12 30  1  0  0  0  0
 12 31  1  0  0  0  0
 13 32  1  0  0  0  0
 13 33  1  0  0  0  0
 15 16  2  0  0  0  0
 15 17  1  0  0  0  0
 16 19  1  0  0  0  0
 16 36  1  0  0  0  0
 17 20  2  0  0  0  0
 17 37  1  0  0  0  0
 18 19  2  0  0  0  0
 18 20  1  0  0  0  0
 18 21  1  0  0  0  0
 19 38  1  0  0  0  0
 20 39  1  0  0  0  0
 21 22  1  0  0  0  0
 22 40  1  0  0  0  0
 22 41  1  0  0  0  0
 22 42  1  0  0  0  0
M  END
