DB00559
 OpenBabel07062211533D

 68 71  0  0  0  0  0  0  0  0999 V2000
    0.1802    2.1952   -3.4724 S   0  0  0  0  0  0  0  0  0  0  0  0
    0.7842    1.8969   -4.7657 O   0  0  0  0  0  0  0  0  0  0  0  0
   -0.4026    3.5139   -3.2569 O   0  0  0  0  0  0  0  0  0  0  0  0
   -0.4623   -1.2501   -1.4700 O   0  0  0  0  0  0  0  0  0  0  0  0
   -1.5262   -1.2684    1.0925 O   0  0  0  0  0  0  0  0  0  0  0  0
    0.6159   -3.3747   -0.0117 O   0  0  0  0  0  0  0  0  0  0  0  0
   -2.2973   -3.5787    2.4713 O   0  0  0  0  0  0  0  0  0  0  0  0
   -0.9982    0.9829   -3.1402 N   0  0  0  0  0  0  0  0  0  0  0  0
   -2.2562    1.9205   -1.3776 N   0  0  0  0  0  0  0  0  0  0  0  0
   -2.5167    0.7915    0.7354 N   0  0  0  0  0  0  0  0  0  0  0  0
   -3.7359    3.9222   -0.4904 N   0  0  0  0  0  0  0  0  0  0  0  0
   -3.9966    2.7926    1.6222 N   0  0  0  0  0  0  0  0  0  0  0  0
    4.3795    1.2024    0.8013 C   0  0  0  0  0  0  0  0  0  0  0  0
    3.3164    1.4545   -0.2808 C   0  0  0  0  0  0  0  0  0  0  0  0
    5.7696    1.6131    0.2693 C   0  0  0  0  0  0  0  0  0  0  0  0
    4.3999   -0.2967    1.1705 C   0  0  0  0  0  0  0  0  0  0  0  0
    4.1401    1.9910    2.1087 C   0  0  0  0  0  0  0  0  0  0  0  0
    3.4079    0.8063   -1.5126 C   0  0  0  0  0  0  0  0  0  0  0  0
    2.2600    2.3301   -0.0304 C   0  0  0  0  0  0  0  0  0  0  0  0
    1.3867    1.9096   -2.2433 C   0  0  0  0  0  0  0  0  0  0  0  0
    2.4432    1.0338   -2.4937 C   0  0  0  0  0  0  0  0  0  0  0  0
    1.2951    2.5577   -1.0117 C   0  0  0  0  0  0  0  0  0  0  0  0
   -1.5050    0.8816   -1.7981 C   0  0  0  0  0  0  0  0  0  0  0  0
   -1.2201   -0.2224   -1.0209 C   0  0  0  0  0  0  0  0  0  0  0  0
   -1.7576   -0.2128    0.2501 C   0  0  0  0  0  0  0  0  0  0  0  0
   -2.7233    1.8115   -0.1193 C   0  0  0  0  0  0  0  0  0  0  0  0
   -1.0377   -2.5129   -1.5139 C   0  0  0  0  0  0  0  0  0  0  0  0
   -3.5293    2.9020    0.3639 C   0  0  0  0  0  0  0  0  0  0  0  0
   -2.1100   -1.1936    2.3877 C   0  0  0  0  0  0  0  0  0  0  0  0
   -0.4915   -3.5668   -0.7815 C   0  0  0  0  0  0  0  0  0  0  0  0
   -2.1719   -2.7225   -2.2981 C   0  0  0  0  0  0  0  0  0  0  0  0
   -1.0796   -4.8306   -0.8334 C   0  0  0  0  0  0  0  0  0  0  0  0
   -1.7654   -2.4530    3.1591 C   0  0  0  0  0  0  0  0  0  0  0  0
   -2.7600   -3.9864   -2.3501 C   0  0  0  0  0  0  0  0  0  0  0  0
   -2.2138   -5.0404   -1.6178 C   0  0  0  0  0  0  0  0  0  0  0  0
   -4.4952    4.9264   -0.0052 C   0  0  0  0  0  0  0  0  0  0  0  0
   -4.7478    3.8314    2.0426 C   0  0  0  0  0  0  0  0  0  0  0  0
   -5.0329    4.9357    1.2655 C   0  0  0  0  0  0  0  0  0  0  0  0
    1.1106   -4.5039    0.7054 C   0  0  0  0  0  0  0  0  0  0  0  0
    5.7813    2.6677   -0.0309 H   0  0  0  0  0  0  0  0  0  0  0  0
    6.0726    1.0202   -0.6006 H   0  0  0  0  0  0  0  0  0  0  0  0
    6.5423    1.4758    1.0349 H   0  0  0  0  0  0  0  0  0  0  0  0
    4.6754   -0.9298    0.3200 H   0  0  0  0  0  0  0  0  0  0  0  0
    3.4162   -0.6298    1.5230 H   0  0  0  0  0  0  0  0  0  0  0  0
    5.1253   -0.4979    1.9674 H   0  0  0  0  0  0  0  0  0  0  0  0
    3.1854    1.7237    2.5769 H   0  0  0  0  0  0  0  0  0  0  0  0
    4.1537    3.0742    1.9398 H   0  0  0  0  0  0  0  0  0  0  0  0
    4.9245    1.7757    2.8448 H   0  0  0  0  0  0  0  0  0  0  0  0
    4.2187    0.1180   -1.7326 H   0  0  0  0  0  0  0  0  0  0  0  0
    2.1401    2.8586    0.9086 H   0  0  0  0  0  0  0  0  0  0  0  0
    2.5303    0.5118   -3.4425 H   0  0  0  0  0  0  0  0  0  0  0  0
    0.4806    3.2430   -0.7944 H   0  0  0  0  0  0  0  0  0  0  0  0
   -0.8230    0.0735   -3.5884 H   0  0  0  0  0  0  0  0  0  0  0  0
   -3.2006   -1.1216    2.2916 H   0  0  0  0  0  0  0  0  0  0  0  0
   -1.7234   -0.3220    2.9289 H   0  0  0  0  0  0  0  0  0  0  0  0
   -2.6051   -1.9154   -2.8826 H   0  0  0  0  0  0  0  0  0  0  0  0
   -0.7112   -5.6945   -0.2913 H   0  0  0  0  0  0  0  0  0  0  0  0
   -2.1891   -2.4210    4.1670 H   0  0  0  0  0  0  0  0  0  0  0  0
   -0.6802   -2.5818    3.2212 H   0  0  0  0  0  0  0  0  0  0  0  0
   -3.6419   -4.1503   -2.9623 H   0  0  0  0  0  0  0  0  0  0  0  0
   -2.6726   -6.0241   -1.6591 H   0  0  0  0  0  0  0  0  0  0  0  0
   -4.6648    5.7513   -0.6890 H   0  0  0  0  0  0  0  0  0  0  0  0
   -5.1272    3.7491    3.0556 H   0  0  0  0  0  0  0  0  0  0  0  0
   -5.6386    5.7550    1.6290 H   0  0  0  0  0  0  0  0  0  0  0  0
    0.3852   -4.8627    1.4435 H   0  0  0  0  0  0  0  0  0  0  0  0
    1.4447   -5.2975    0.0284 H   0  0  0  0  0  0  0  0  0  0  0  0
    1.9918   -4.1698    1.2631 H   0  0  0  0  0  0  0  0  0  0  0  0
   -2.0467   -4.3684    2.9805 H   0  0  0  0  0  0  0  0  0  0  0  0
  1  2  2  0  0  0  0
  1  3  2  0  0  0  0
  1  8  1  0  0  0  0
  1 20  1  0  0  0  0
  4 24  1  0  0  0  0
  4 27  1  0  0  0  0
  5 25  1  0  0  0  0
  5 29  1  0  0  0  0
  6 30  1  0  0  0  0
  6 39  1  0  0  0  0
  7 33  1  0  0  0  0
  7 68  1  0  0  0  0
  8 23  1  0  0  0  0
  8 53  1  0  0  0  0
  9 23  2  0  0  0  0
  9 26  1  0  0  0  0
 10 25  1  0  0  0  0
 10 26  2  0  0  0  0
 11 28  2  0  0  0  0
 11 36  1  0  0  0  0
 12 28  1  0  0  0  0
 12 37  2  0  0  0  0
 13 14  1  0  0  0  0
 13 15  1  0  0  0  0
 13 16  1  0  0  0  0
 13 17  1  0  0  0  0
 14 18  2  0  0  0  0
 14 19  1  0  0  0  0
 15 40  1  0  0  0  0
 15 41  1  0  0  0  0
 15 42  1  0  0  0  0
 16 43  1  0  0  0  0
 16 44  1  0  0  0  0
 16 45  1  0  0  0  0
 17 46  1  0  0  0  0
 17 47  1  0  0  0  0
 17 48  1  0  0  0  0
 18 21  1  0  0  0  0
 18 49  1  0  0  0  0
 19 22  2  0  0  0  0
 19 50  1  0  0  0  0
 20 21  2  0  0  0  0
 20 22  1  0  0  0  0
 21 51  1  0  0  0  0
 22 52  1  0  0  0  0
 23 24  1  0  0  0  0
 24 25  2  0  0  0  0
 26 28  1  0  0  0  0
 27 30  2  0  0  0  0
 27 31  1  0  0  0  0
 29 33  1  0  0  0  0
 29 54  1  0  0  0  0
 29 55  1  0  0  0  0
 30 32  1  0  0  0  0
 31 34  2  0  0  0  0
 31 56  1  0  0  0  0
 32 35  2  0  0  0  0
 32 57  1  0  0  0  0
 33 58  1  0  0  0  0
 33 59  1  0  0  0  0
 34 35  1  0  0  0  0
 34 60  1  0  0  0  0
 35 61  1  0  0  0  0
 36 38  2  0  0  0  0
 36 62  1  0  0  0  0
 37 38  1  0  0  0  0
 37 63  1  0  0  0  0
 38 64  1  0  0  0  0
 39 65  1  0  0  0  0
 39 66  1  0  0  0  0
 39 67  1  0  0  0  0
M  END
