DB00370
 OpenBabel07062211533D

 39 42  0  0  1  0  0  0  0  0999 V2000
    0.3892   -1.0705    0.1385 N   0  0  0  0  0  0  0  0  0  0  0  0
    3.0959   -0.1752    0.2013 N   0  0  0  0  0  0  0  0  0  0  0  0
   -1.1455   -2.7081    0.9851 N   0  0  0  0  0  0  0  0  0  0  0  0
    0.6786    0.3093    0.5928 C   0  0  1  0  0  0  0  0  0  0  0  0
    2.0002    0.7665   -0.0759 C   0  0  0  0  0  0  0  0  0  0  0  0
    1.4785   -2.0311    0.3503 C   0  0  0  0  0  0  0  0  0  0  0  0
    2.7605   -1.5123   -0.3003 C   0  0  0  0  0  0  0  0  0  0  0  0
   -0.3725    1.4018    0.3892 C   0  0  0  0  0  0  0  0  0  0  0  0
   -0.9019   -1.6091    0.2190 C   0  0  0  0  0  0  0  0  0  0  0  0
   -1.4001    1.3689   -0.5721 C   0  0  0  0  0  0  0  0  0  0  0  0
   -1.6349    0.1545   -1.4266 C   0  0  0  0  0  0  0  0  0  0  0  0
   -1.9217   -1.0419   -0.5603 C   0  0  0  0  0  0  0  0  0  0  0  0
    4.3443    0.2980   -0.3961 C   0  0  0  0  0  0  0  0  0  0  0  0
   -0.2658    2.5487    1.2057 C   0  0  0  0  0  0  0  0  0  0  0  0
   -2.2706    2.4666   -0.7052 C   0  0  0  0  0  0  0  0  0  0  0  0
   -3.2069   -1.5939   -0.5076 C   0  0  0  0  0  0  0  0  0  0  0  0
   -1.1369    3.6293    1.0679 C   0  0  0  0  0  0  0  0  0  0  0  0
   -2.1379    3.5898    0.1076 C   0  0  0  0  0  0  0  0  0  0  0  0
   -3.4555   -2.6995    0.2908 C   0  0  0  0  0  0  0  0  0  0  0  0
   -2.3981   -3.2168    1.0096 C   0  0  0  0  0  0  0  0  0  0  0  0
    0.8405    0.2409    1.6794 H   0  0  0  0  0  0  0  0  0  0  0  0
    1.8517    0.8765   -1.1601 H   0  0  0  0  0  0  0  0  0  0  0  0
    2.2818    1.7552    0.3084 H   0  0  0  0  0  0  0  0  0  0  0  0
    1.2421   -3.0007   -0.1068 H   0  0  0  0  0  0  0  0  0  0  0  0
    1.6320   -2.1955    1.4248 H   0  0  0  0  0  0  0  0  0  0  0  0
    3.5717   -2.2136   -0.0701 H   0  0  0  0  0  0  0  0  0  0  0  0
    2.6394   -1.4974   -1.3919 H   0  0  0  0  0  0  0  0  0  0  0  0
   -2.4680    0.3210   -2.1211 H   0  0  0  0  0  0  0  0  0  0  0  0
   -0.7617   -0.0306   -2.0655 H   0  0  0  0  0  0  0  0  0  0  0  0
    5.1680   -0.3834   -0.1557 H   0  0  0  0  0  0  0  0  0  0  0  0
    4.6190    1.2773    0.0116 H   0  0  0  0  0  0  0  0  0  0  0  0
    4.2758    0.3853   -1.4865 H   0  0  0  0  0  0  0  0  0  0  0  0
    0.5171    2.6090    1.9596 H   0  0  0  0  0  0  0  0  0  0  0  0
   -3.0710    2.4464   -1.4413 H   0  0  0  0  0  0  0  0  0  0  0  0
   -4.0169   -1.1649   -1.0913 H   0  0  0  0  0  0  0  0  0  0  0  0
   -1.0283    4.4999    1.7079 H   0  0  0  0  0  0  0  0  0  0  0  0
   -2.8196    4.4274   -0.0056 H   0  0  0  0  0  0  0  0  0  0  0  0
   -4.4428   -3.1427    0.3438 H   0  0  0  0  0  0  0  0  0  0  0  0
   -2.5297   -4.0852    1.6466 H   0  0  0  0  0  0  0  0  0  0  0  0
  1  4  1  0  0  0  0
  1  6  1  0  0  0  0
  1  9  1  0  0  0  0
  2  5  1  0  0  0  0
  2  7  1  0  0  0  0
  2 13  1  0  0  0  0
  3  9  2  0  0  0  0
  3 20  1  0  0  0  0
  4  5  1  0  0  0  0
  4  8  1  0  0  0  0
  4 21  1  1  0  0  0
  5 22  1  0  0  0  0
  5 23  1  0  0  0  0
  6  7  1  0  0  0  0
  6 24  1  0  0  0  0
  6 25  1  0  0  0  0
  7 26  1  0  0  0  0
  7 27  1  0  0  0  0
  8 10  2  0  0  0  0
  8 14  1  0  0  0  0
  9 12  1  0  0  0  0
 10 11  1  0  0  0  0
 10 15  1  0  0  0  0
 11 12  1  0  0  0  0
 11 28  1  0  0  0  0
 11 29  1  0  0  0  0
 12 16  2  0  0  0  0
 13 30  1  0  0  0  0
 13 31  1  0  0  0  0
 13 32  1  0  0  0  0
 14 17  2  0  0  0  0
 14 33  1  0  0  0  0
 15 18  2  0  0  0  0
 15 34  1  0  0  0  0
 16 19  1  0  0  0  0
 16 35  1  0  0  0  0
 17 18  1  0  0  0  0
 17 36  1  0  0  0  0
 18 37  1  0  0  0  0
 19 20  2  0  0  0  0
 19 38  1  0  0  0  0
 20 39  1  0  0  0  0
M  END
