DB00535
 OpenBabel07062211533D

 39 41  0  0  1  0  0  0  0  0999 V2000
   -1.3155    0.7464   -1.8696 S   0  0  0  0  0  0  0  0  0  0  0  0
    3.6415   -2.7468    0.8481 S   0  0  0  0  0  0  0  0  0  0  0  0
   -0.5422    1.2084    2.6922 O   0  0  0  0  0  0  0  0  0  0  0  0
   -2.4232   -1.6017    2.3123 O   0  0  0  0  0  0  0  0  0  0  0  0
   -4.0351   -0.0555    2.8028 O   0  0  0  0  0  0  0  0  0  0  0  0
    2.3559    2.1832    1.7456 O   0  0  0  0  0  0  0  0  0  0  0  0
    3.7340    3.1220   -0.8698 O   0  0  0  0  0  0  0  0  0  0  0  0
   -1.8230    0.9448    0.7286 N   0  0  0  0  0  0  0  0  0  0  0  0
    1.0410    1.6428   -0.1225 N   0  0  0  0  0  0  0  0  0  0  0  0
    4.1572    1.7915   -0.8084 N   0  0  0  0  0  0  0  0  0  0  0  0
    4.7851   -0.8732   -0.5174 N   0  0  0  0  0  0  0  0  0  0  0  0
    5.8145   -2.9968   -0.6643 N   0  0  0  0  0  0  0  0  0  0  0  0
   -1.5243    1.7925   -0.4116 C   0  0  1  0  0  0  0  0  0  0  0  0
   -0.2347    2.1865    0.3403 C   0  0  1  0  0  0  0  0  0  0  0  0
   -0.8447    1.4055    1.5387 C   0  0  0  0  0  0  0  0  0  0  0  0
   -2.8359    0.0383    0.7526 C   0  0  0  0  0  0  0  0  0  0  0  0
   -3.0214    0.0990   -1.7825 C   0  0  0  0  0  0  0  0  0  0  0  0
   -3.4527   -0.3539   -0.3888 C   0  0  0  0  0  0  0  0  0  0  0  0
   -3.1867   -0.5191    2.0701 C   0  0  0  0  0  0  0  0  0  0  0  0
    2.1985    1.7022    0.6350 C   0  0  0  0  0  0  0  0  0  0  0  0
   -4.5818   -1.2639   -0.4416 C   0  0  0  0  0  0  0  0  0  0  0  0
    3.3844    1.0736   -0.0503 C   0  0  0  0  0  0  0  0  0  0  0  0
   -5.1645   -1.6291   -1.5770 C   0  0  0  0  0  0  0  0  0  0  0  0
    3.6995   -0.3483    0.1243 C   0  0  0  0  0  0  0  0  0  0  0  0
    2.9518   -1.1775    0.9045 C   0  0  0  0  0  0  0  0  0  0  0  0
    4.8559   -2.1486   -0.2065 C   0  0  0  0  0  0  0  0  0  0  0  0
   -2.2385    2.6161   -0.5297 H   0  0  0  0  0  0  0  0  0  0  0  0
   -0.1611    3.2642    0.5288 H   0  0  0  0  0  0  0  0  0  0  0  0
    1.0967    1.2012   -1.0374 H   0  0  0  0  0  0  0  0  0  0  0  0
   -2.9712   -0.7365   -2.4863 H   0  0  0  0  0  0  0  0  0  0  0  0
   -3.7076    0.8600   -2.1706 H   0  0  0  0  0  0  0  0  0  0  0  0
   -4.9576   -1.6805    0.4881 H   0  0  0  0  0  0  0  0  0  0  0  0
   -5.9980   -2.3260   -1.5283 H   0  0  0  0  0  0  0  0  0  0  0  0
   -4.9229   -1.2874   -2.5741 H   0  0  0  0  0  0  0  0  0  0  0  0
   -2.6234   -2.0080    3.1825 H   0  0  0  0  0  0  0  0  0  0  0  0
    2.0668   -0.9769    1.4918 H   0  0  0  0  0  0  0  0  0  0  0  0
    4.4004    3.5116   -1.4606 H   0  0  0  0  0  0  0  0  0  0  0  0
    6.5501   -2.6843   -1.2894 H   0  0  0  0  0  0  0  0  0  0  0  0
    5.8324   -3.9761   -0.3994 H   0  0  0  0  0  0  0  0  0  0  0  0
  1 13  1  0  0  0  0
  1 17  1  0  0  0  0
  2 25  1  0  0  0  0
  2 26  1  0  0  0  0
  3 15  2  0  0  0  0
  4 19  1  0  0  0  0
  4 35  1  0  0  0  0
  5 19  2  0  0  0  0
  6 20  2  0  0  0  0
  7 10  1  0  0  0  0
  7 37  1  0  0  0  0
  8 13  1  0  0  0  0
  8 15  1  0  0  0  0
  8 16  1  0  0  0  0
  9 14  1  0  0  0  0
  9 20  1  0  0  0  0
  9 29  1  0  0  0  0
 10 22  2  0  0  0  0
 11 24  1  0  0  0  0
 11 26  2  0  0  0  0
 12 26  1  0  0  0  0
 12 38  1  0  0  0  0
 12 39  1  0  0  0  0
 13 14  1  1  0  0  0
 13 27  1  0  0  0  0
 14 15  1  0  0  0  0
 14 28  1  1  0  0  0
 16 18  2  0  0  0  0
 16 19  1  0  0  0  0
 17 18  1  0  0  0  0
 17 30  1  0  0  0  0
 17 31  1  0  0  0  0
 18 21  1  0  0  0  0
 20 22  1  0  0  0  0
 21 23  2  0  0  0  0
 21 32  1  0  0  0  0
 22 24  1  0  0  0  0
 23 33  1  0  0  0  0
 23 34  1  0  0  0  0
 24 25  2  0  0  0  0
 25 36  1  0  0  0  0
M  END
