DB00932
 OpenBabel07062211533D

 75 78  0  0  1  0  0  0  0  0999 V2000
   -5.0313   -2.1917   -0.7998 S   0  0  0  0  0  0  0  0  0  0  0  0
   -2.2507    3.4225   -3.1224 F   0  0  0  0  0  0  0  0  0  0  0  0
   -4.3604    3.9397   -3.2168 F   0  0  0  0  0  0  0  0  0  0  0  0
   -3.2726    4.1704   -1.3547 F   0  0  0  0  0  0  0  0  0  0  0  0
    3.3461   -1.1800    0.8720 O   0  0  0  0  0  0  0  0  0  0  0  0
   -0.1960   -1.5984   -1.2573 O   0  0  0  0  0  0  0  0  0  0  0  0
    2.6905   -2.8044    2.2941 O   0  0  0  0  0  0  0  0  0  0  0  0
   -6.4512   -2.2508   -1.0924 O   0  0  0  0  0  0  0  0  0  0  0  0
   -4.1388   -3.1893   -1.3582 O   0  0  0  0  0  0  0  0  0  0  0  0
   -4.8141   -2.0938    0.9065 N   0  0  0  0  0  0  0  0  0  0  0  0
   -5.2925    0.4039   -0.9710 N   0  0  0  0  0  0  0  0  0  0  0  0
    2.9757   -0.1281   -0.0528 C   0  0  1  0  0  0  0  0  0  0  0  0
    2.0761   -0.7040   -1.1479 C   0  0  0  0  0  0  0  0  0  0  0  0
    2.3056    1.0088    0.7332 C   0  0  0  0  0  0  0  0  0  0  0  0
    4.2786    0.3913   -0.6697 C   0  0  0  0  0  0  0  0  0  0  0  0
    0.9817   -1.5239   -0.5413 C   0  0  0  0  0  0  0  0  0  0  0  0
    1.1266   -2.1457    0.6395 C   0  0  0  0  0  0  0  0  0  0  0  0
    1.8927    2.1457   -0.1953 C   0  0  0  0  0  0  0  0  0  0  0  0
    0.0612   -2.9719    1.2964 C   0  0  2  0  0  0  0  0  0  0  0  0
    5.2638   -0.7460   -0.8967 C   0  0  0  0  0  0  0  0  0  0  0  0
    2.4355   -2.0738    1.3419 C   0  0  0  0  0  0  0  0  0  0  0  0
   -0.2645   -4.2181    0.4443 C   0  0  0  0  0  0  0  0  0  0  0  0
   -1.1613   -2.1283    1.6181 C   0  0  0  0  0  0  0  0  0  0  0  0
    1.2217    3.2591    0.5680 C   0  0  0  0  0  0  0  0  0  0  0  0
    6.5476   -0.2345   -1.5307 C   0  0  0  0  0  0  0  0  0  0  0  0
    0.9614   -5.0702    0.1360 C   0  0  0  0  0  0  0  0  0  0  0  0
   -2.4122   -2.4948    1.1214 C   0  0  0  0  0  0  0  0  0  0  0  0
   -1.0320   -0.9872    2.4098 C   0  0  0  0  0  0  0  0  0  0  0  0
   -0.1611    3.2453    0.7504 C   0  0  0  0  0  0  0  0  0  0  0  0
    1.9840    4.3031    1.0918 C   0  0  0  0  0  0  0  0  0  0  0  0
   -3.5337   -1.7199    1.4162 C   0  0  0  0  0  0  0  0  0  0  0  0
   -2.1538   -0.2124    2.7047 C   0  0  0  0  0  0  0  0  0  0  0  0
   -3.4047   -0.5786    2.2078 C   0  0  0  0  0  0  0  0  0  0  0  0
   -0.7818    4.2757    1.4566 C   0  0  0  0  0  0  0  0  0  0  0  0
    1.3634    5.3335    1.7982 C   0  0  0  0  0  0  0  0  0  0  0  0
   -0.0196    5.3198    1.9804 C   0  0  0  0  0  0  0  0  0  0  0  0
   -4.4634   -0.6015   -1.3306 C   0  0  0  0  0  0  0  0  0  0  0  0
   -3.2871   -0.4205   -2.0402 C   0  0  0  0  0  0  0  0  0  0  0  0
   -2.9394    0.8757   -2.4039 C   0  0  0  0  0  0  0  0  0  0  0  0
   -3.7668    1.9363   -2.0521 C   0  0  0  0  0  0  0  0  0  0  0  0
   -4.9216    1.6499   -1.3420 C   0  0  0  0  0  0  0  0  0  0  0  0
   -3.4233    3.3341   -2.4262 C   0  0  0  0  0  0  0  0  0  0  0  0
    2.6417   -1.3908   -1.7904 H   0  0  0  0  0  0  0  0  0  0  0  0
    1.6864    0.0621   -1.8220 H   0  0  0  0  0  0  0  0  0  0  0  0
    2.9873    1.3740    1.5137 H   0  0  0  0  0  0  0  0  0  0  0  0
    1.4330    0.6401    1.2848 H   0  0  0  0  0  0  0  0  0  0  0  0
    4.0894    0.9269   -1.6078 H   0  0  0  0  0  0  0  0  0  0  0  0
    4.7591    1.1057    0.0122 H   0  0  0  0  0  0  0  0  0  0  0  0
    1.1862    1.8161   -0.9630 H   0  0  0  0  0  0  0  0  0  0  0  0
    2.7524    2.5631   -0.7315 H   0  0  0  0  0  0  0  0  0  0  0  0
    0.4041   -3.3512    2.2684 H   0  0  0  0  0  0  0  0  0  0  0  0
    5.5404   -1.2286    0.0476 H   0  0  0  0  0  0  0  0  0  0  0  0
    4.8382   -1.5168   -1.5473 H   0  0  0  0  0  0  0  0  0  0  0  0
   -0.9698   -4.8587    0.9906 H   0  0  0  0  0  0  0  0  0  0  0  0
   -0.7381   -3.9630   -0.5110 H   0  0  0  0  0  0  0  0  0  0  0  0
    6.3486    0.2264   -2.5036 H   0  0  0  0  0  0  0  0  0  0  0  0
    7.2496   -1.0600   -1.6848 H   0  0  0  0  0  0  0  0  0  0  0  0
    7.0343    0.5088   -0.8909 H   0  0  0  0  0  0  0  0  0  0  0  0
   -0.0760   -1.1098   -2.0891 H   0  0  0  0  0  0  0  0  0  0  0  0
    1.6613   -4.5581   -0.5308 H   0  0  0  0  0  0  0  0  0  0  0  0
    0.6547   -5.9957   -0.3628 H   0  0  0  0  0  0  0  0  0  0  0  0
    1.4908   -5.3450    1.0540 H   0  0  0  0  0  0  0  0  0  0  0  0
   -2.5557   -3.3922    0.5343 H   0  0  0  0  0  0  0  0  0  0  0  0
   -0.0684   -0.6933    2.8167 H   0  0  0  0  0  0  0  0  0  0  0  0
   -0.7661    2.4363    0.3490 H   0  0  0  0  0  0  0  0  0  0  0  0
    3.0623    4.3238    0.9581 H   0  0  0  0  0  0  0  0  0  0  0  0
   -2.0533    0.6757    3.3218 H   0  0  0  0  0  0  0  0  0  0  0  0
   -4.2713    0.0341    2.4422 H   0  0  0  0  0  0  0  0  0  0  0  0
   -1.8586    4.2644    1.5983 H   0  0  0  0  0  0  0  0  0  0  0  0
    1.9568    6.1463    2.2066 H   0  0  0  0  0  0  0  0  0  0  0  0
   -0.5028    6.1220    2.5304 H   0  0  0  0  0  0  0  0  0  0  0  0
   -5.6150   -1.7324    1.4409 H   0  0  0  0  0  0  0  0  0  0  0  0
   -2.6526   -1.2528   -2.3197 H   0  0  0  0  0  0  0  0  0  0  0  0
   -2.0212    1.0396   -2.9609 H   0  0  0  0  0  0  0  0  0  0  0  0
   -5.6060    2.4365   -1.0393 H   0  0  0  0  0  0  0  0  0  0  0  0
  1  8  2  0  0  0  0
  1  9  2  0  0  0  0
  1 10  1  0  0  0  0
  1 37  1  0  0  0  0
  2 42  1  0  0  0  0
  3 42  1  0  0  0  0
  4 42  1  0  0  0  0
  5 12  1  0  0  0  0
  5 21  1  0  0  0  0
  6 16  1  0  0  0  0
  6 59  1  0  0  0  0
  7 21  2  0  0  0  0
 10 31  1  0  0  0  0
 10 72  1  0  0  0  0
 11 37  2  0  0  0  0
 11 41  1  0  0  0  0
 12 13  1  0  0  0  0
 12 14  1  1  0  0  0
 12 15  1  0  0  0  0
 13 16  1  0  0  0  0
 13 43  1  0  0  0  0
 13 44  1  0  0  0  0
 14 18  1  0  0  0  0
 14 45  1  0  0  0  0
 14 46  1  0  0  0  0
 15 20  1  0  0  0  0
 15 47  1  0  0  0  0
 15 48  1  0  0  0  0
 16 17  2  0  0  0  0
 17 19  1  0  0  0  0
 17 21  1  0  0  0  0
 18 24  1  0  0  0  0
 18 49  1  0  0  0  0
 18 50  1  0  0  0  0
 19 22  1  0  0  0  0
 19 23  1  0  0  0  0
 19 51  1  1  0  0  0
 20 25  1  0  0  0  0
 20 52  1  0  0  0  0
 20 53  1  0  0  0  0
 22 26  1  0  0  0  0
 22 54  1  0  0  0  0
 22 55  1  0  0  0  0
 23 27  2  0  0  0  0
 23 28  1  0  0  0  0
 24 29  2  0  0  0  0
 24 30  1  0  0  0  0
 25 56  1  0  0  0  0
 25 57  1  0  0  0  0
 25 58  1  0  0  0  0
 26 60  1  0  0  0  0
 26 61  1  0  0  0  0
 26 62  1  0  0  0  0
 27 31  1  0  0  0  0
 27 63  1  0  0  0  0
 28 32  2  0  0  0  0
 28 64  1  0  0  0  0
 29 34  1  0  0  0  0
 29 65  1  0  0  0  0
 30 35  2  0  0  0  0
 30 66  1  0  0  0  0
 31 33  2  0  0  0  0
 32 33  1  0  0  0  0
 32 67  1  0  0  0  0
 33 68  1  0  0  0  0
 34 36  2  0  0  0  0
 34 69  1  0  0  0  0
 35 36  1  0  0  0  0
 35 70  1  0  0  0  0
 36 71  1  0  0  0  0
 37 38  1  0  0  0  0
 38 39  2  0  0  0  0
 38 73  1  0  0  0  0
 39 40  1  0  0  0  0
 39 74  1  0  0  0  0
 40 41  2  0  0  0  0
 40 42  1  0  0  0  0
 41 75  1  0  0  0  0
M  END
