DB00315
 OpenBabel07062211533D

 42 44  0  0  1  0  0  0  0  0999 V2000
   -5.1216    2.4428   -0.6010 O   0  0  0  0  0  0  0  0  0  0  0  0
   -3.7225    3.4538   -2.1092 O   0  0  0  0  0  0  0  0  0  0  0  0
   -3.0793    1.5691   -0.9056 N   0  0  0  0  0  0  0  0  0  0  0  0
    0.8901   -3.6691   -0.5774 N   0  0  0  0  0  0  0  0  0  0  0  0
    4.0806    1.2077   -0.0201 N   0  0  0  0  0  0  0  0  0  0  0  0
   -3.7386    0.6363   -0.0470 C   0  0  1  0  0  0  0  0  0  0  0  0
   -2.8663    0.1511    1.0939 C   0  0  0  0  0  0  0  0  0  0  0  0
   -1.9120   -0.9136    0.6644 C   0  0  0  0  0  0  0  0  0  0  0  0
    0.2522   -1.5633   -0.2090 C   0  0  0  0  0  0  0  0  0  0  0  0
    1.5795   -1.5641   -0.7218 C   0  0  0  0  0  0  0  0  0  0  0  0
   -4.9465    1.4305    0.4055 C   0  0  0  0  0  0  0  0  0  0  0  0
   -0.1568   -2.8961   -0.1282 C   0  0  0  0  0  0  0  0  0  0  0  0
   -0.6435   -0.5534    0.1951 C   0  0  0  0  0  0  0  0  0  0  0  0
    2.4227   -0.3798   -0.9810 C   0  0  0  0  0  0  0  0  0  0  0  0
   -2.2931   -2.2521    0.7342 C   0  0  0  0  0  0  0  0  0  0  0  0
    3.2747    0.0195    0.2391 C   0  0  0  0  0  0  0  0  0  0  0  0
    1.9440   -2.8731   -0.9382 C   0  0  0  0  0  0  0  0  0  0  0  0
   -1.4217   -3.2711    0.3386 C   0  0  0  0  0  0  0  0  0  0  0  0
   -3.9395    2.5758   -1.2861 C   0  0  0  0  0  0  0  0  0  0  0  0
    4.8410    1.5839    1.1726 C   0  0  0  0  0  0  0  0  0  0  0  0
    3.2333    2.3195   -0.4543 C   0  0  0  0  0  0  0  0  0  0  0  0
   -4.0698   -0.1946   -0.6829 H   0  0  0  0  0  0  0  0  0  0  0  0
   -3.4990   -0.2525    1.8960 H   0  0  0  0  0  0  0  0  0  0  0  0
   -2.3155    0.9849    1.5499 H   0  0  0  0  0  0  0  0  0  0  0  0
   -5.8470    0.8120    0.4663 H   0  0  0  0  0  0  0  0  0  0  0  0
   -4.7972    1.9349    1.3666 H   0  0  0  0  0  0  0  0  0  0  0  0
   -0.3473    0.4909    0.1457 H   0  0  0  0  0  0  0  0  0  0  0  0
    3.0819   -0.5752   -1.8373 H   0  0  0  0  0  0  0  0  0  0  0  0
    1.7528    0.4304   -1.2888 H   0  0  0  0  0  0  0  0  0  0  0  0
   -2.1696    1.4210   -1.3311 H   0  0  0  0  0  0  0  0  0  0  0  0
   -3.2818   -2.5238    1.0975 H   0  0  0  0  0  0  0  0  0  0  0  0
    3.9354   -0.8196    0.4938 H   0  0  0  0  0  0  0  0  0  0  0  0
    2.6170    0.1755    1.1058 H   0  0  0  0  0  0  0  0  0  0  0  0
    2.8575   -3.3109   -1.3162 H   0  0  0  0  0  0  0  0  0  0  0  0
   -1.7194   -4.3129    0.3926 H   0  0  0  0  0  0  0  0  0  0  0  0
    0.8812   -4.6782   -0.6322 H   0  0  0  0  0  0  0  0  0  0  0  0
    5.4934    0.7621    1.4881 H   0  0  0  0  0  0  0  0  0  0  0  0
    4.1892    1.8495    2.0128 H   0  0  0  0  0  0  0  0  0  0  0  0
    5.4949    2.4370    0.9597 H   0  0  0  0  0  0  0  0  0  0  0  0
    3.8125    3.2507   -0.4852 H   0  0  0  0  0  0  0  0  0  0  0  0
    2.3796    2.4836    0.2134 H   0  0  0  0  0  0  0  0  0  0  0  0
    2.8746    2.1809   -1.4789 H   0  0  0  0  0  0  0  0  0  0  0  0
  1 11  1  0  0  0  0
  1 19  1  0  0  0  0
  2 19  2  0  0  0  0
  3  6  1  0  0  0  0
  3 19  1  0  0  0  0
  3 30  1  0  0  0  0
  4 12  1  0  0  0  0
  4 17  2  0  0  0  0
  4 36  1  0  0  0  0
  5 16  1  0  0  0  0
  5 20  1  0  0  0  0
  5 21  1  0  0  0  0
  6  7  1  0  0  0  0
  6 11  1  0  0  0  0
  6 22  1  6  0  0  0
  7  8  1  0  0  0  0
  7 23  1  0  0  0  0
  7 24  1  0  0  0  0
  8 13  1  0  0  0  0
  8 15  2  0  0  0  0
  9 10  2  0  0  0  0
  9 12  1  0  0  0  0
  9 13  2  0  0  0  0
 10 14  1  0  0  0  0
 10 17  1  0  0  0  0
 11 25  1  0  0  0  0
 11 26  1  0  0  0  0
 12 18  2  0  0  0  0
 13 27  1  0  0  0  0
 14 16  1  0  0  0  0
 14 28  1  0  0  0  0
 14 29  1  0  0  0  0
 15 18  1  0  0  0  0
 15 31  1  0  0  0  0
 16 32  1  0  0  0  0
 16 33  1  0  0  0  0
 17 34  1  0  0  0  0
 18 35  1  0  0  0  0
 20 37  1  0  0  0  0
 20 38  1  0  0  0  0
 20 39  1  0  0  0  0
 21 40  1  0  0  0  0
 21 41  1  0  0  0  0
 21 42  1  0  0  0  0
M  END
