DB00677
 OpenBabel07062211533D

 25 24  0  0  0  0  0  0  0  0999 V2000
   -0.0191    0.4431   -1.4286 P   0  0  0  0  0  0  0  0  0  0  0  0
   -0.0047    1.7799   -0.6033 F   0  0  0  0  0  0  0  0  0  0  0  0
    0.8811   -0.5757   -0.5529 O   0  0  0  0  0  0  0  0  0  0  0  0
   -1.5306   -0.1081   -1.2679 O   0  0  0  0  0  0  0  0  0  0  0  0
    0.4328    0.6639   -2.8419 O   0  0  0  0  0  0  0  0  0  0  0  0
    2.2472   -0.2580   -0.3552 C   0  0  0  0  0  0  0  0  0  0  0  0
   -2.0430   -0.3460    0.0315 C   0  0  0  0  0  0  0  0  0  0  0  0
    2.3515    1.0803    0.3604 C   0  0  0  0  0  0  0  0  0  0  0  0
    2.9123   -1.3758    0.4336 C   0  0  0  0  0  0  0  0  0  0  0  0
   -2.0215    0.9525    0.8236 C   0  0  0  0  0  0  0  0  0  0  0  0
   -3.4479   -0.9181   -0.0812 C   0  0  0  0  0  0  0  0  0  0  0  0
    2.7356   -0.1888   -1.3340 H   0  0  0  0  0  0  0  0  0  0  0  0
   -1.4144   -1.0912    0.5317 H   0  0  0  0  0  0  0  0  0  0  0  0
    3.3601    1.2311    0.7603 H   0  0  0  0  0  0  0  0  0  0  0  0
    2.1685    1.9122   -0.3260 H   0  0  0  0  0  0  0  0  0  0  0  0
    1.6372    1.1538    1.1871 H   0  0  0  0  0  0  0  0  0  0  0  0
    3.9785   -1.1806    0.5832 H   0  0  0  0  0  0  0  0  0  0  0  0
    2.8021   -2.3306   -0.0919 H   0  0  0  0  0  0  0  0  0  0  0  0
    2.4361   -1.4990    1.4126 H   0  0  0  0  0  0  0  0  0  0  0  0
   -2.6747    0.8851    1.7005 H   0  0  0  0  0  0  0  0  0  0  0  0
   -1.0205    1.1636    1.2106 H   0  0  0  0  0  0  0  0  0  0  0  0
   -2.3451    1.8046    0.2168 H   0  0  0  0  0  0  0  0  0  0  0  0
   -3.8688   -1.1433    0.9035 H   0  0  0  0  0  0  0  0  0  0  0  0
   -3.4384   -1.8380   -0.6757 H   0  0  0  0  0  0  0  0  0  0  0  0
   -4.1142   -0.2173   -0.5965 H   0  0  0  0  0  0  0  0  0  0  0  0
  1  2  1  0  0  0  0
  1  3  1  0  0  0  0
  1  4  1  0  0  0  0
  1  5  2  0  0  0  0
  3  6  1  0  0  0  0
  4  7  1  0  0  0  0
  6  8  1  0  0  0  0
  6  9  1  0  0  0  0
  6 12  1  0  0  0  0
  7 10  1  0  0  0  0
  7 11  1  0  0  0  0
  7 13  1  0  0  0  0
  8 14  1  0  0  0  0
  8 15  1  0  0  0  0
  8 16  1  0  0  0  0
  9 17  1  0  0  0  0
  9 18  1  0  0  0  0
  9 19  1  0  0  0  0
 10 20  1  0  0  0  0
 10 21  1  0  0  0  0
 10 22  1  0  0  0  0
 11 23  1  0  0  0  0
 11 24  1  0  0  0  0
 11 25  1  0  0  0  0
M  END
