DB00158
 OpenBabel07062211533D

 51 53  0  0  1  0  0  0  0  0999 V2000
    7.5078   -2.1163    1.3552 O   0  0  0  0  0  0  0  0  0  0  0  0
    3.9025   -1.5292   -2.1183 O   0  0  0  0  0  0  0  0  0  0  0  0
    5.4932   -1.8360    2.3613 O   0  0  0  0  0  0  0  0  0  0  0  0
    7.0142    3.5568    0.9753 O   0  0  0  0  0  0  0  0  0  0  0  0
    7.7790    2.6198   -0.9442 O   0  0  0  0  0  0  0  0  0  0  0  0
   -6.9281   -2.5926   -0.5851 O   0  0  0  0  0  0  0  0  0  0  0  0
    4.3381   -0.9785    0.0920 N   0  0  0  0  0  0  0  0  0  0  0  0
   -2.0225   -0.1802   -0.1864 N   0  0  0  0  0  0  0  0  0  0  0  0
   -5.1329   -0.6184   -0.6932 N   0  0  0  0  0  0  0  0  0  0  0  0
   -8.0802    1.0031    0.7287 N   0  0  0  0  0  0  0  0  0  0  0  0
   -5.9167    1.9166    0.2251 N   0  0  0  0  0  0  0  0  0  0  0  0
   -8.5915   -1.2869    0.3161 N   0  0  0  0  0  0  0  0  0  0  0  0
  -10.1666    0.1899    1.2318 N   0  0  0  0  0  0  0  0  0  0  0  0
    5.7658   -1.1666    0.0357 C   0  0  1  0  0  0  0  0  0  0  0  0
    6.5140    0.1030   -0.3885 C   0  0  0  0  0  0  0  0  0  0  0  0
    6.3762    1.3061    0.5532 C   0  0  0  0  0  0  0  0  0  0  0  0
    3.5143   -1.1788   -1.0069 C   0  0  0  0  0  0  0  0  0  0  0  0
    2.0677   -0.9173   -0.7925 C   0  0  0  0  0  0  0  0  0  0  0  0
    6.2087   -1.7187    1.3750 C   0  0  0  0  0  0  0  0  0  0  0  0
   -0.6488   -0.4268   -0.3899 C   0  0  0  0  0  0  0  0  0  0  0  0
   -2.9061    0.2106   -1.2409 C   0  0  0  0  0  0  0  0  0  0  0  0
    1.2610   -0.5375   -1.8653 C   0  0  0  0  0  0  0  0  0  0  0  0
    1.5161   -1.0519    0.4815 C   0  0  0  0  0  0  0  0  0  0  0  0
   -0.0973   -0.2923   -1.6641 C   0  0  0  0  0  0  0  0  0  0  0  0
    0.1577   -0.8067    0.6828 C   0  0  0  0  0  0  0  0  0  0  0  0
   -4.2948    0.4343   -0.7096 C   0  0  0  0  0  0  0  0  0  0  0  0
    7.1225    2.5365    0.0843 C   0  0  0  0  0  0  0  0  0  0  0  0
   -6.3661   -0.3692   -0.2081 C   0  0  0  0  0  0  0  0  0  0  0  0
   -6.7734    0.8732    0.2498 C   0  0  0  0  0  0  0  0  0  0  0  0
   -4.6793    1.6780   -0.2589 C   0  0  0  0  0  0  0  0  0  0  0  0
   -7.3162   -1.5032   -0.1748 C   0  0  0  0  0  0  0  0  0  0  0  0
   -8.9185   -0.0902    0.7342 C   0  0  0  0  0  0  0  0  0  0  0  0
    5.9622   -1.9517   -0.7057 H   0  0  0  0  0  0  0  0  0  0  0  0
    6.1691    0.4013   -1.3874 H   0  0  0  0  0  0  0  0  0  0  0  0
    7.5814   -0.1307   -0.4966 H   0  0  0  0  0  0  0  0  0  0  0  0
    5.3197    1.5795    0.6499 H   0  0  0  0  0  0  0  0  0  0  0  0
    6.7635    1.0420    1.5435 H   0  0  0  0  0  0  0  0  0  0  0  0
    3.9567   -0.6096    0.9570 H   0  0  0  0  0  0  0  0  0  0  0  0
   -2.9564   -0.5698   -2.0107 H   0  0  0  0  0  0  0  0  0  0  0  0
   -2.5626    1.1315   -1.7288 H   0  0  0  0  0  0  0  0  0  0  0  0
    1.6735   -0.4237   -2.8645 H   0  0  0  0  0  0  0  0  0  0  0  0
    2.1012   -1.3757    1.3371 H   0  0  0  0  0  0  0  0  0  0  0  0
   -2.3787   -0.2987    0.7560 H   0  0  0  0  0  0  0  0  0  0  0  0
   -0.6885   -0.0001   -2.5267 H   0  0  0  0  0  0  0  0  0  0  0  0
   -0.2619   -0.9218    1.6789 H   0  0  0  0  0  0  0  0  0  0  0  0
   -4.0109    2.5312   -0.2663 H   0  0  0  0  0  0  0  0  0  0  0  0
    7.7892   -2.4887    2.2180 H   0  0  0  0  0  0  0  0  0  0  0  0
   -8.3766    1.9114    1.0627 H   0  0  0  0  0  0  0  0  0  0  0  0
    7.5112    4.3506    0.6839 H   0  0  0  0  0  0  0  0  0  0  0  0
  -10.4116    1.1199    1.5532 H   0  0  0  0  0  0  0  0  0  0  0  0
  -10.8808   -0.5277    1.2912 H   0  0  0  0  0  0  0  0  0  0  0  0
  1 19  1  0  0  0  0
  1 47  1  0  0  0  0
  2 17  2  0  0  0  0
  3 19  2  0  0  0  0
  4 27  1  0  0  0  0
  4 49  1  0  0  0  0
  5 27  2  0  0  0  0
  6 31  2  0  0  0  0
  7 14  1  0  0  0  0
  7 17  1  0  0  0  0
  7 38  1  0  0  0  0
  8 20  1  0  0  0  0
  8 21  1  0  0  0  0
  8 43  1  0  0  0  0
  9 26  2  0  0  0  0
  9 28  1  0  0  0  0
 10 29  1  0  0  0  0
 10 32  2  0  0  0  0
 10 48  1  0  0  0  0
 11 29  1  0  0  0  0
 11 30  2  0  0  0  0
 12 31  1  0  0  0  0
 12 32  1  0  0  0  0
 13 32  1  0  0  0  0
 13 50  1  0  0  0  0
 13 51  1  0  0  0  0
 14 15  1  0  0  0  0
 14 19  1  0  0  0  0
 14 33  1  6  0  0  0
 15 16  1  0  0  0  0
 15 34  1  0  0  0  0
 15 35  1  0  0  0  0
 16 27  1  0  0  0  0
 16 36  1  0  0  0  0
 16 37  1  0  0  0  0
 17 18  1  0  0  0  0
 18 22  2  0  0  0  0
 18 23  1  0  0  0  0
 20 24  2  0  0  0  0
 20 25  1  0  0  0  0
 21 26  1  0  0  0  0
 21 39  1  0  0  0  0
 21 40  1  0  0  0  0
 22 24  1  0  0  0  0
 22 41  1  0  0  0  0
 23 25  2  0  0  0  0
 23 42  1  0  0  0  0
 24 44  1  0  0  0  0
 25 45  1  0  0  0  0
 26 30  1  0  0  0  0
 28 29  2  0  0  0  0
 28 31  1  0  0  0  0
 30 46  1  0  0  0  0
M  END
