DB00712
 OpenBabel07062211533D

 31 32  0  0  1  0  0  0  0  0999 V2000
   -0.8047    0.2000   -2.2440 F   0  0  0  0  0  0  0  0  0  0  0  0
    5.2778    1.1363    0.0138 O   0  0  0  0  0  0  0  0  0  0  0  0
    3.3125    2.1244   -0.5315 O   0  0  0  0  0  0  0  0  0  0  0  0
    3.2597   -0.1325    0.4014 C   0  0  1  0  0  0  0  0  0  0  0  0
    1.7723   -0.0926    0.3018 C   0  0  0  0  0  0  0  0  0  0  0  0
   -1.0107   -0.0181    0.1151 C   0  0  0  0  0  0  0  0  0  0  0  0
    1.1600    0.0379   -0.9448 C   0  0  0  0  0  0  0  0  0  0  0  0
    0.9932   -0.1857    1.4550 C   0  0  0  0  0  0  0  0  0  0  0  0
   -0.2313    0.0749   -1.0382 C   0  0  0  0  0  0  0  0  0  0  0  0
   -0.3981   -0.1484    1.3617 C   0  0  0  0  0  0  0  0  0  0  0  0
    3.9054   -1.3163   -0.3473 C   0  0  0  0  0  0  0  0  0  0  0  0
   -2.4540    0.0198    0.0234 C   0  0  0  0  0  0  0  0  0  0  0  0
    3.9225    1.1608   -0.0863 C   0  0  0  0  0  0  0  0  0  0  0  0
   -3.1259    1.2401    0.0928 C   0  0  0  0  0  0  0  0  0  0  0  0
   -3.1738   -1.1649   -0.1323 C   0  0  0  0  0  0  0  0  0  0  0  0
   -4.5176    1.2758    0.0064 C   0  0  0  0  0  0  0  0  0  0  0  0
   -4.5655   -1.1291   -0.2190 C   0  0  0  0  0  0  0  0  0  0  0  0
   -5.2375    0.0912   -0.1497 C   0  0  0  0  0  0  0  0  0  0  0  0
    3.5391   -0.2201    1.4604 H   0  0  0  0  0  0  0  0  0  0  0  0
    1.7488    0.1107   -1.8552 H   0  0  0  0  0  0  0  0  0  0  0  0
    1.4538   -0.2879    2.4342 H   0  0  0  0  0  0  0  0  0  0  0  0
   -0.9904   -0.2224    2.2709 H   0  0  0  0  0  0  0  0  0  0  0  0
    3.4320   -2.2612   -0.0586 H   0  0  0  0  0  0  0  0  0  0  0  0
    3.8098   -1.2078   -1.4335 H   0  0  0  0  0  0  0  0  0  0  0  0
    4.9736   -1.3964   -0.1184 H   0  0  0  0  0  0  0  0  0  0  0  0
   -2.5802    2.1729    0.2144 H   0  0  0  0  0  0  0  0  0  0  0  0
   -2.6657   -2.1248   -0.1879 H   0  0  0  0  0  0  0  0  0  0  0  0
   -5.0410    2.2259    0.0604 H   0  0  0  0  0  0  0  0  0  0  0  0
   -5.1262   -2.0514   -0.3404 H   0  0  0  0  0  0  0  0  0  0  0  0
   -6.3211    0.1191   -0.2171 H   0  0  0  0  0  0  0  0  0  0  0  0
    5.6827    1.9699   -0.3076 H   0  0  0  0  0  0  0  0  0  0  0  0
  1  9  1  0  0  0  0
  2 13  1  0  0  0  0
  2 31  1  0  0  0  0
  3 13  2  0  0  0  0
  4  5  1  0  0  0  0
  4 11  1  0  0  0  0
  4 13  1  0  0  0  0
  4 19  1  1  0  0  0
  5  7  2  0  0  0  0
  5  8  1  0  0  0  0
  6  9  2  0  0  0  0
  6 10  1  0  0  0  0
  6 12  1  0  0  0  0
  7  9  1  0  0  0  0
  7 20  1  0  0  0  0
  8 10  2  0  0  0  0
  8 21  1  0  0  0  0
 10 22  1  0  0  0  0
 11 23  1  0  0  0  0
 11 24  1  0  0  0  0
 11 25  1  0  0  0  0
 12 14  2  0  0  0  0
 12 15  1  0  0  0  0
 14 16  1  0  0  0  0
 14 26  1  0  0  0  0
 15 17  2  0  0  0  0
 15 27  1  0  0  0  0
 16 18  2  0  0  0  0
 16 28  1  0  0  0  0
 17 18  1  0  0  0  0
 17 29  1  0  0  0  0
 18 30  1  0  0  0  0
M  END
