DB00665
 OpenBabel07062211533D

 32 33  0  0  0  0  0  0  0  0999 V2000
    2.5966   -3.0113   -0.1798 F   0  0  0  0  0  0  0  0  0  0  0  0
    4.3014   -2.0413   -1.1173 F   0  0  0  0  0  0  0  0  0  0  0  0
    4.1711   -2.1472    1.0562 F   0  0  0  0  0  0  0  0  0  0  0  0
   -1.2399   -1.5267    0.8599 O   0  0  0  0  0  0  0  0  0  0  0  0
   -1.1569    2.6025   -1.1937 O   0  0  0  0  0  0  0  0  0  0  0  0
    5.3961    1.6968    0.2527 O   0  0  0  0  0  0  0  0  0  0  0  0
    5.4506   -0.4983    0.1248 O   0  0  0  0  0  0  0  0  0  0  0  0
   -0.7747    0.5355   -0.1471 N   0  0  0  0  0  0  0  0  0  0  0  0
   -2.8841    1.1691   -0.5684 N   0  0  0  0  0  0  0  0  0  0  0  0
    4.8240    0.5862    0.1556 N   0  0  0  0  0  0  0  0  0  0  0  0
   -3.0550   -0.1206    0.0444 C   0  0  0  0  0  0  0  0  0  0  0  0
   -1.5953   -0.4860    0.3186 C   0  0  0  0  0  0  0  0  0  0  0  0
   -3.6799   -1.1154   -0.9251 C   0  0  0  0  0  0  0  0  0  0  0  0
   -3.8336   -0.0149    1.3491 C   0  0  0  0  0  0  0  0  0  0  0  0
   -1.5498    1.5553   -0.6944 C   0  0  0  0  0  0  0  0  0  0  0  0
    0.6135    0.5419   -0.0723 C   0  0  0  0  0  0  0  0  0  0  0  0
    1.3245   -0.6605   -0.1063 C   0  0  0  0  0  0  0  0  0  0  0  0
    1.3051    1.7511    0.0373 C   0  0  0  0  0  0  0  0  0  0  0  0
    2.7173   -0.6539   -0.0314 C   0  0  0  0  0  0  0  0  0  0  0  0
    3.4041    0.5553    0.0779 C   0  0  0  0  0  0  0  0  0  0  0  0
    2.6980    1.7579    0.1124 C   0  0  0  0  0  0  0  0  0  0  0  0
    3.4441   -1.9592   -0.0710 C   0  0  0  0  0  0  0  0  0  0  0  0
   -3.6565    1.7430   -0.8926 H   0  0  0  0  0  0  0  0  0  0  0  0
   -4.6845   -0.7961   -1.2241 H   0  0  0  0  0  0  0  0  0  0  0  0
   -3.0805   -1.2144   -1.8378 H   0  0  0  0  0  0  0  0  0  0  0  0
   -3.7572   -2.1118   -0.4761 H   0  0  0  0  0  0  0  0  0  0  0  0
   -4.8463    0.3648    1.1738 H   0  0  0  0  0  0  0  0  0  0  0  0
   -3.9144   -0.9895    1.8431 H   0  0  0  0  0  0  0  0  0  0  0  0
   -3.3430    0.6682    2.0526 H   0  0  0  0  0  0  0  0  0  0  0  0
    0.8125   -1.6077   -0.2397 H   0  0  0  0  0  0  0  0  0  0  0  0
    0.7972    2.7072    0.1121 H   0  0  0  0  0  0  0  0  0  0  0  0
    3.1955    2.7198    0.2064 H   0  0  0  0  0  0  0  0  0  0  0  0
  1 22  1  0  0  0  0
  2 22  1  0  0  0  0
  3 22  1  0  0  0  0
  4 12  2  0  0  0  0
  5 15  2  0  0  0  0
  6 10  1  0  0  0  0
  7 10  2  0  0  0  0
  8 12  1  0  0  0  0
  8 15  1  0  0  0  0
  8 16  1  0  0  0  0
  9 11  1  0  0  0  0
  9 15  1  0  0  0  0
  9 23  1  0  0  0  0
 10 20  1  0  0  0  0
 11 12  1  0  0  0  0
 11 13  1  0  0  0  0
 11 14  1  0  0  0  0
 13 24  1  0  0  0  0
 13 25  1  0  0  0  0
 13 26  1  0  0  0  0
 14 27  1  0  0  0  0
 14 28  1  0  0  0  0
 14 29  1  0  0  0  0
 16 17  2  0  0  0  0
 16 18  1  0  0  0  0
 17 19  1  0  0  0  0
 17 30  1  0  0  0  0
 18 21  2  0  0  0  0
 18 31  1  0  0  0  0
 19 20  2  0  0  0  0
 19 22  1  0  0  0  0
 20 21  1  0  0  0  0
 21 32  1  0  0  0  0
M  END
