DB00724
 OpenBabel07062211533D

 34 36  0  0  0  0  0  0  0  0999 V2000
   -0.8979    0.8333    0.7932 N   0  0  0  0  0  0  0  0  0  0  0  0
   -0.1491    2.8895    0.4109 N   0  0  0  0  0  0  0  0  0  0  0  0
    3.0249    1.1142   -0.2984 N   0  0  0  0  0  0  0  0  0  0  0  0
    2.6718    3.4742   -0.4070 N   0  0  0  0  0  0  0  0  0  0  0  0
   -1.8640   -0.1812    1.1446 C   0  0  0  0  0  0  0  0  0  0  0  0
   -2.6491   -0.7361   -0.0572 C   0  0  0  0  0  0  0  0  0  0  0  0
    0.4220    0.6825    0.4473 C   0  0  0  0  0  0  0  0  0  0  0  0
    1.2661   -0.4341    0.3143 C   0  0  0  0  0  0  0  0  0  0  0  0
    0.8631    1.9801    0.2146 C   0  0  0  0  0  0  0  0  0  0  0  0
   -1.1911    2.1680    0.7572 C   0  0  0  0  0  0  0  0  0  0  0  0
   -1.7253   -1.3294   -1.1232 C   0  0  0  0  0  0  0  0  0  0  0  0
   -3.5034    0.3740   -0.6727 C   0  0  0  0  0  0  0  0  0  0  0  0
    2.5900   -0.1424   -0.0713 C   0  0  0  0  0  0  0  0  0  0  0  0
    2.1885    2.1757   -0.1630 C   0  0  0  0  0  0  0  0  0  0  0  0
    0.8248   -1.7514    0.5482 C   0  0  0  0  0  0  0  0  0  0  0  0
    3.4549   -1.2229   -0.2133 C   0  0  0  0  0  0  0  0  0  0  0  0
    1.7208   -2.8029    0.3957 C   0  0  0  0  0  0  0  0  0  0  0  0
    3.0338   -2.5390    0.0151 C   0  0  0  0  0  0  0  0  0  0  0  0
   -2.5785    0.2991    1.8291 H   0  0  0  0  0  0  0  0  0  0  0  0
   -1.4045   -0.9440    1.7702 H   0  0  0  0  0  0  0  0  0  0  0  0
   -3.3236   -1.5218    0.3048 H   0  0  0  0  0  0  0  0  0  0  0  0
   -2.1706    2.5607    0.9949 H   0  0  0  0  0  0  0  0  0  0  0  0
   -2.3238   -1.5825   -2.0086 H   0  0  0  0  0  0  0  0  0  0  0  0
   -0.9557   -0.6429   -1.4793 H   0  0  0  0  0  0  0  0  0  0  0  0
   -1.2950   -2.2795   -0.8060 H   0  0  0  0  0  0  0  0  0  0  0  0
   -4.1903   -0.0497   -1.4143 H   0  0  0  0  0  0  0  0  0  0  0  0
   -4.1146    0.8747    0.0854 H   0  0  0  0  0  0  0  0  0  0  0  0
   -2.9006    1.1261   -1.1911 H   0  0  0  0  0  0  0  0  0  0  0  0
   -0.1517   -2.0287    0.8988 H   0  0  0  0  0  0  0  0  0  0  0  0
    4.4887   -1.0525   -0.5088 H   0  0  0  0  0  0  0  0  0  0  0  0
    1.4038   -3.8243    0.5841 H   0  0  0  0  0  0  0  0  0  0  0  0
    3.7382   -3.3578   -0.1026 H   0  0  0  0  0  0  0  0  0  0  0  0
    3.6371    3.5975   -0.6808 H   0  0  0  0  0  0  0  0  0  0  0  0
    2.0603    4.2735   -0.3105 H   0  0  0  0  0  0  0  0  0  0  0  0
  1  5  1  0  0  0  0
  1  7  1  0  0  0  0
  1 10  2  0  0  0  0
  2  9  2  0  0  0  0
  2 10  1  0  0  0  0
  3 13  2  0  0  0  0
  3 14  1  0  0  0  0
  4 14  1  0  0  0  0
  4 33  1  0  0  0  0
  4 34  1  0  0  0  0
  5  6  1  0  0  0  0
  5 19  1  0  0  0  0
  5 20  1  0  0  0  0
  6 11  1  0  0  0  0
  6 12  1  0  0  0  0
  6 21  1  0  0  0  0
  7  8  2  0  0  0  0
  7  9  1  0  0  0  0
  8 13  1  0  0  0  0
  8 15  1  0  0  0  0
  9 14  2  0  0  0  0
 10 22  1  0  0  0  0
 11 23  1  0  0  0  0
 11 24  1  0  0  0  0
 11 25  1  0  0  0  0
 12 26  1  0  0  0  0
 12 27  1  0  0  0  0
 12 28  1  0  0  0  0
 13 16  1  0  0  0  0
 15 17  2  0  0  0  0
 15 29  1  0  0  0  0
 16 18  2  0  0  0  0
 16 30  1  0  0  0  0
 17 18  1  0  0  0  0
 17 31  1  0  0  0  0
 18 32  1  0  0  0  0
M  END
