DB00405
 OpenBabel07062211533D

 38 39  0  0  1  0  0  0  0  0999 V2000
   -6.3739    1.3986    0.3573 Br  0  0  0  0  0  0  0  0  0  0  0  0
    2.4947    1.0730    0.2539 N   0  0  0  0  0  0  0  0  0  0  0  0
   -0.5429   -1.9368   -1.1063 N   0  0  0  0  0  0  0  0  0  0  0  0
   -0.3337    0.1688    0.0717 C   0  0  1  0  0  0  0  0  0  0  0  0
    0.4019    0.9829   -1.0250 C   0  0  0  0  0  0  0  0  0  0  0  0
    1.9125    0.7213   -1.0369 C   0  0  0  0  0  0  0  0  0  0  0  0
   -1.8272    0.4729    0.1435 C   0  0  0  0  0  0  0  0  0  0  0  0
   -0.0795   -1.3313   -0.0064 C   0  0  0  0  0  0  0  0  0  0  0  0
   -2.4702    0.3588    1.3567 C   0  0  0  0  0  0  0  0  0  0  0  0
   -2.4814    0.8511   -1.0087 C   0  0  0  0  0  0  0  0  0  0  0  0
    0.5875   -1.9302    1.0307 C   0  0  0  0  0  0  0  0  0  0  0  0
    2.3065    2.4975    0.5324 C   0  0  0  0  0  0  0  0  0  0  0  0
    3.9177    0.7324    0.2867 C   0  0  0  0  0  0  0  0  0  0  0  0
   -3.8356    0.6370    1.4209 C   0  0  0  0  0  0  0  0  0  0  0  0
   -3.8468    1.1295   -0.9443 C   0  0  0  0  0  0  0  0  0  0  0  0
    0.8034   -3.2999    0.9289 C   0  0  0  0  0  0  0  0  0  0  0  0
   -4.5238    1.0223    0.2705 C   0  0  0  0  0  0  0  0  0  0  0  0
   -0.3146   -3.2677   -1.1701 C   0  0  0  0  0  0  0  0  0  0  0  0
    0.3470   -3.9890   -0.1893 C   0  0  0  0  0  0  0  0  0  0  0  0
    0.0677    0.5323    1.0290 H   0  0  0  0  0  0  0  0  0  0  0  0
    0.0540    0.6753   -2.0196 H   0  0  0  0  0  0  0  0  0  0  0  0
    0.1702    2.0517   -0.9494 H   0  0  0  0  0  0  0  0  0  0  0  0
    2.3699    1.3017   -1.8492 H   0  0  0  0  0  0  0  0  0  0  0  0
    2.1028   -0.3336   -1.2680 H   0  0  0  0  0  0  0  0  0  0  0  0
   -1.9427    0.0590    2.2570 H   0  0  0  0  0  0  0  0  0  0  0  0
   -2.0024    0.9276   -1.9768 H   0  0  0  0  0  0  0  0  0  0  0  0
    0.9394   -1.3850    1.8986 H   0  0  0  0  0  0  0  0  0  0  0  0
    1.2612    2.7453    0.7394 H   0  0  0  0  0  0  0  0  0  0  0  0
    2.6708    3.1345   -0.2820 H   0  0  0  0  0  0  0  0  0  0  0  0
    2.8492    2.7804    1.4427 H   0  0  0  0  0  0  0  0  0  0  0  0
    4.0604   -0.3403    0.1143 H   0  0  0  0  0  0  0  0  0  0  0  0
    4.3435    0.9487    1.2728 H   0  0  0  0  0  0  0  0  0  0  0  0
    4.4922    1.2831   -0.4669 H   0  0  0  0  0  0  0  0  0  0  0  0
   -4.3484    0.5484    2.3753 H   0  0  0  0  0  0  0  0  0  0  0  0
   -4.3697    1.4240   -1.8506 H   0  0  0  0  0  0  0  0  0  0  0  0
    1.3264   -3.8296    1.7194 H   0  0  0  0  0  0  0  0  0  0  0  0
   -0.6903   -3.7581   -2.0620 H   0  0  0  0  0  0  0  0  0  0  0  0
    0.5041   -5.0567   -0.2898 H   0  0  0  0  0  0  0  0  0  0  0  0
  1 17  1  0  0  0  0
  2  6  1  0  0  0  0
  2 12  1  0  0  0  0
  2 13  1  0  0  0  0
  3  8  2  0  0  0  0
  3 18  1  0  0  0  0
  4  5  1  0  0  0  0
  4  7  1  0  0  0  0
  4  8  1  0  0  0  0
  4 20  1  1  0  0  0
  5  6  1  0  0  0  0
  5 21  1  0  0  0  0
  5 22  1  0  0  0  0
  6 23  1  0  0  0  0
  6 24  1  0  0  0  0
  7  9  2  0  0  0  0
  7 10  1  0  0  0  0
  8 11  1  0  0  0  0
  9 14  1  0  0  0  0
  9 25  1  0  0  0  0
 10 15  2  0  0  0  0
 10 26  1  0  0  0  0
 11 16  2  0  0  0  0
 11 27  1  0  0  0  0
 12 28  1  0  0  0  0
 12 29  1  0  0  0  0
 12 30  1  0  0  0  0
 13 31  1  0  0  0  0
 13 32  1  0  0  0  0
 13 33  1  0  0  0  0
 14 17  2  0  0  0  0
 14 34  1  0  0  0  0
 15 17  1  0  0  0  0
 15 35  1  0  0  0  0
 16 19  1  0  0  0  0
 16 36  1  0  0  0  0
 18 19  2  0  0  0  0
 18 37  1  0  0  0  0
 19 38  1  0  0  0  0
M  END
