DB00656
 OpenBabel07062211533D

 48 51  0  0  0  0  0  0  0  0999 V2000
    7.3017    2.1628    1.7540 Cl  0  0  0  0  0  0  0  0  0  0  0  0
   -5.2206   -2.1084   -0.5077 O   0  0  0  0  0  0  0  0  0  0  0  0
    0.1932   -0.7611    0.6160 N   0  0  0  0  0  0  0  0  0  0  0  0
    2.9307   -0.0618    0.1970 N   0  0  0  0  0  0  0  0  0  0  0  0
   -3.1942   -0.9086   -0.6723 N   0  0  0  0  0  0  0  0  0  0  0  0
   -5.0638    0.2290   -0.4275 N   0  3  0  0  0  0  0  0  0  0  0  0
   -2.8470    0.4243   -0.6531 N   0  0  0  0  0  0  0  0  0  0  0  0
    0.8125    0.3152    1.3992 C   0  0  0  0  0  0  0  0  0  0  0  0
    1.1882   -1.7985    0.3190 C   0  0  0  0  0  0  0  0  0  0  0  0
    1.9680    0.9591    0.6296 C   0  0  0  0  0  0  0  0  0  0  0  0
    2.3573   -1.2255   -0.4858 C   0  0  0  0  0  0  0  0  0  0  0  0
   -0.9434   -1.3319    1.3381 C   0  0  0  0  0  0  0  0  0  0  0  0
   -1.6524   -2.4174    0.5230 C   0  0  0  0  0  0  0  0  0  0  0  0
   -2.2039   -1.9398   -0.8189 C   0  0  0  0  0  0  0  0  0  0  0  0
    4.2330    0.3497   -0.1077 C   0  0  0  0  0  0  0  0  0  0  0  0
    5.0404    0.9822    0.8589 C   0  0  0  0  0  0  0  0  0  0  0  0
    4.7768    0.1428   -1.3913 C   0  0  0  0  0  0  0  0  0  0  0  0
   -4.5883   -1.0623   -0.5314 C   0  0  0  0  0  0  0  0  0  0  0  0
   -3.9759    1.0447   -0.5082 C   0  0  0  0  0  0  0  0  0  0  0  0
    6.3389    1.3907    0.5545 C   0  0  0  0  0  0  0  0  0  0  0  0
    6.0754    0.5517   -1.6958 C   0  0  0  0  0  0  0  0  0  0  0  0
    6.8564    1.1755   -0.7229 C   0  0  0  0  0  0  0  0  0  0  0  0
   -6.3492    0.6661   -0.2734 C   0  0  0  0  0  0  0  0  0  0  0  0
   -4.2084    2.5036   -0.4229 C   0  0  0  0  0  0  0  0  0  0  0  0
   -6.5834    1.9843   -0.1940 C   0  0  0  0  0  0  0  0  0  0  0  0
   -5.4765    2.9194   -0.2719 C   0  0  0  0  0  0  0  0  0  0  0  0
    1.1799   -0.0661    2.3615 H   0  0  0  0  0  0  0  0  0  0  0  0
    0.0717    1.0942    1.6176 H   0  0  0  0  0  0  0  0  0  0  0  0
    0.7745   -2.6012   -0.2979 H   0  0  0  0  0  0  0  0  0  0  0  0
    1.5660   -2.2530    1.2449 H   0  0  0  0  0  0  0  0  0  0  0  0
    1.5853    1.4900   -0.2518 H   0  0  0  0  0  0  0  0  0  0  0  0
    2.4356    1.7075    1.2796 H   0  0  0  0  0  0  0  0  0  0  0  0
    3.1102   -2.0150   -0.6025 H   0  0  0  0  0  0  0  0  0  0  0  0
    2.0103   -0.9367   -1.4864 H   0  0  0  0  0  0  0  0  0  0  0  0
   -0.6186   -1.7676    2.2926 H   0  0  0  0  0  0  0  0  0  0  0  0
   -1.6625   -0.5439    1.5916 H   0  0  0  0  0  0  0  0  0  0  0  0
   -1.0209   -3.2992    0.3757 H   0  0  0  0  0  0  0  0  0  0  0  0
   -2.4951   -2.7762    1.1304 H   0  0  0  0  0  0  0  0  0  0  0  0
   -1.4100   -1.5773   -1.4804 H   0  0  0  0  0  0  0  0  0  0  0  0
   -2.6835   -2.7901   -1.3173 H   0  0  0  0  0  0  0  0  0  0  0  0
    4.6492    1.1426    1.8621 H   0  0  0  0  0  0  0  0  0  0  0  0
    4.1944   -0.3286   -2.1789 H   0  0  0  0  0  0  0  0  0  0  0  0
    6.4774    0.3870   -2.6912 H   0  0  0  0  0  0  0  0  0  0  0  0
    7.8661    1.4896   -0.9748 H   0  0  0  0  0  0  0  0  0  0  0  0
   -7.1335   -0.0783   -0.2216 H   0  0  0  0  0  0  0  0  0  0  0  0
   -3.3693    3.1839   -0.4828 H   0  0  0  0  0  0  0  0  0  0  0  0
   -7.5865    2.3752   -0.0717 H   0  0  0  0  0  0  0  0  0  0  0  0
   -5.7061    3.9772   -0.2036 H   0  0  0  0  0  0  0  0  0  0  0  0
  1 20  1  0  0  0  0
  2 18  2  0  0  0  0
  3  8  1  0  0  0  0
  3  9  1  0  0  0  0
  3 12  1  0  0  0  0
  4 10  1  0  0  0  0
  4 11  1  0  0  0  0
  4 15  1  0  0  0  0
  5  7  2  0  0  0  0
  5 14  1  0  0  0  0
  5 18  1  0  0  0  0
  6 18  1  0  0  0  0
  6 19  2  0  0  0  0
  6 23  1  0  0  0  0
  7 19  1  0  0  0  0
  8 10  1  0  0  0  0
  8 27  1  0  0  0  0
  8 28  1  0  0  0  0
  9 11  1  0  0  0  0
  9 29  1  0  0  0  0
  9 30  1  0  0  0  0
 10 31  1  0  0  0  0
 10 32  1  0  0  0  0
 11 33  1  0  0  0  0
 11 34  1  0  0  0  0
 12 13  1  0  0  0  0
 12 35  1  0  0  0  0
 12 36  1  0  0  0  0
 13 14  1  0  0  0  0
 13 37  1  0  0  0  0
 13 38  1  0  0  0  0
 14 39  1  0  0  0  0
 14 40  1  0  0  0  0
 15 16  2  0  0  0  0
 15 17  1  0  0  0  0
 16 20  1  0  0  0  0
 16 41  1  0  0  0  0
 17 21  2  0  0  0  0
 17 42  1  0  0  0  0
 19 24  1  0  0  0  0
 20 22  2  0  0  0  0
 21 22  1  0  0  0  0
 21 43  1  0  0  0  0
 22 44  1  0  0  0  0
 23 25  2  0  0  0  0
 23 45  1  0  0  0  0
 24 26  2  0  0  0  0
 24 46  1  0  0  0  0
 25 26  1  0  0  0  0
 25 47  1  0  0  0  0
 26 48  1  0  0  0  0
M  CHG  1   6   1
M  END
