DB00782
 OpenBabel07062211533D

 57 59  0  0  0  0  0  0  0  0999 V2000
   -0.5099   -0.8124    0.8708 O   0  0  0  0  0  0  0  0  0  0  0  0
   -5.0906    0.7861   -0.7556 O   0  0  0  0  0  0  0  0  0  0  0  0
   -1.3181   -0.2188   -1.2104 O   0  0  0  0  0  0  0  0  0  0  0  0
    2.9368   -0.1050   -0.2942 N   0  3  0  0  0  0  0  0  0  0  0  0
    3.8113    1.1561   -0.3080 C   0  0  0  0  0  0  0  0  0  0  0  0
    3.6872   -1.1982    0.4785 C   0  0  0  0  0  0  0  0  0  0  0  0
    1.6202    0.1737    0.3328 C   0  0  0  0  0  0  0  0  0  0  0  0
    2.7605   -0.5795   -1.7431 C   0  0  0  0  0  0  0  0  0  0  0  0
    3.1104    2.2196   -1.1380 C   0  0  0  0  0  0  0  0  0  0  0  0
    5.1751    0.7909   -0.8720 C   0  0  0  0  0  0  0  0  0  0  0  0
    2.8628   -2.4747    0.4300 C   0  0  0  0  0  0  0  0  0  0  0  0
    3.9150   -0.7132    1.9012 C   0  0  0  0  0  0  0  0  0  0  0  0
    0.7743   -1.0840    0.3005 C   0  0  0  0  0  0  0  0  0  0  0  0
   -2.7485   -0.1427    0.7274 C   0  0  0  0  0  0  0  0  0  0  0  0
   -1.4622   -0.3859   -0.0069 C   0  0  0  0  0  0  0  0  0  0  0  0
   -3.1429    1.3075    0.6220 C   0  0  0  0  0  0  0  0  0  0  0  0
   -3.8232   -1.0637    0.2114 C   0  0  0  0  0  0  0  0  0  0  0  0
   -4.2688    1.6851   -0.1174 C   0  0  0  0  0  0  0  0  0  0  0  0
   -4.9115   -0.5541   -0.5045 C   0  0  0  0  0  0  0  0  0  0  0  0
   -2.3780    2.3017    1.2502 C   0  0  0  0  0  0  0  0  0  0  0  0
   -3.7406   -2.4476    0.4274 C   0  0  0  0  0  0  0  0  0  0  0  0
   -4.6165    3.0333   -0.2408 C   0  0  0  0  0  0  0  0  0  0  0  0
   -5.8929   -1.4120   -1.0090 C   0  0  0  0  0  0  0  0  0  0  0  0
   -2.7296    3.6470    1.1323 C   0  0  0  0  0  0  0  0  0  0  0  0
   -4.7241   -3.3029   -0.0706 C   0  0  0  0  0  0  0  0  0  0  0  0
   -3.8468    4.0125    0.3848 C   0  0  0  0  0  0  0  0  0  0  0  0
   -5.7985   -2.7853   -0.7904 C   0  0  0  0  0  0  0  0  0  0  0  0
    3.8932    1.5439    0.7114 H   0  0  0  0  0  0  0  0  0  0  0  0
    4.6305   -1.4157   -0.0281 H   0  0  0  0  0  0  0  0  0  0  0  0
    1.7267    0.6024    1.3336 H   0  0  0  0  0  0  0  0  0  0  0  0
    1.0878    0.9221   -0.2605 H   0  0  0  0  0  0  0  0  0  0  0  0
    3.7225   -0.8237   -2.1932 H   0  0  0  0  0  0  0  0  0  0  0  0
    2.1609   -1.4813   -1.8280 H   0  0  0  0  0  0  0  0  0  0  0  0
    2.2291    0.1787   -2.3209 H   0  0  0  0  0  0  0  0  0  0  0  0
    3.7090    3.1395   -1.0839 H   0  0  0  0  0  0  0  0  0  0  0  0
    3.0523    1.9945   -2.2058 H   0  0  0  0  0  0  0  0  0  0  0  0
    2.1259    2.5128   -0.7700 H   0  0  0  0  0  0  0  0  0  0  0  0
    5.7625    1.7180   -0.9381 H   0  0  0  0  0  0  0  0  0  0  0  0
    5.1842    0.3996   -1.8899 H   0  0  0  0  0  0  0  0  0  0  0  0
    5.7792    0.1541   -0.2220 H   0  0  0  0  0  0  0  0  0  0  0  0
    3.6359   -3.2613    0.3380 H   0  0  0  0  0  0  0  0  0  0  0  0
    2.4606   -2.7878    1.4025 H   0  0  0  0  0  0  0  0  0  0  0  0
    2.2549   -2.7574   -0.4255 H   0  0  0  0  0  0  0  0  0  0  0  0
    4.4266   -1.5111    2.4561 H   0  0  0  0  0  0  0  0  0  0  0  0
    3.0006   -0.5170    2.4663 H   0  0  0  0  0  0  0  0  0  0  0  0
    4.5810    0.1483    1.9819 H   0  0  0  0  0  0  0  0  0  0  0  0
    0.6080   -1.5643   -0.6631 H   0  0  0  0  0  0  0  0  0  0  0  0
    1.0317   -1.7843    1.0715 H   0  0  0  0  0  0  0  0  0  0  0  0
   -2.6208   -0.3645    1.7965 H   0  0  0  0  0  0  0  0  0  0  0  0
   -1.5000    2.0326    1.8325 H   0  0  0  0  0  0  0  0  0  0  0  0
   -2.9059   -2.8671    0.9836 H   0  0  0  0  0  0  0  0  0  0  0  0
   -5.4891    3.3261   -0.8186 H   0  0  0  0  0  0  0  0  0  0  0  0
   -6.7363   -1.0155   -1.5684 H   0  0  0  0  0  0  0  0  0  0  0  0
   -2.1298    4.4092    1.6210 H   0  0  0  0  0  0  0  0  0  0  0  0
   -4.6501   -4.3728    0.1010 H   0  0  0  0  0  0  0  0  0  0  0  0
   -4.1190    5.0596    0.2910 H   0  0  0  0  0  0  0  0  0  0  0  0
   -6.5630   -3.4512   -1.1798 H   0  0  0  0  0  0  0  0  0  0  0  0
  1 13  1  0  0  0  0
  1 15  1  0  0  0  0
  2 18  1  0  0  0  0
  2 19  1  0  0  0  0
  3 15  2  0  0  0  0
  4  5  1  0  0  0  0
  4  6  1  0  0  0  0
  4  7  1  0  0  0  0
  4  8  1  0  0  0  0
  5  9  1  0  0  0  0
  5 10  1  0  0  0  0
  5 28  1  0  0  0  0
  6 11  1  0  0  0  0
  6 12  1  0  0  0  0
  6 29  1  0  0  0  0
  7 13  1  0  0  0  0
  7 30  1  0  0  0  0
  7 31  1  0  0  0  0
  8 32  1  0  0  0  0
  8 33  1  0  0  0  0
  8 34  1  0  0  0  0
  9 35  1  0  0  0  0
  9 36  1  0  0  0  0
  9 37  1  0  0  0  0
 10 38  1  0  0  0  0
 10 39  1  0  0  0  0
 10 40  1  0  0  0  0
 11 41  1  0  0  0  0
 11 42  1  0  0  0  0
 11 43  1  0  0  0  0
 12 44  1  0  0  0  0
 12 45  1  0  0  0  0
 12 46  1  0  0  0  0
 13 47  1  0  0  0  0
 13 48  1  0  0  0  0
 14 15  1  0  0  0  0
 14 16  1  0  0  0  0
 14 17  1  0  0  0  0
 14 49  1  0  0  0  0
 16 18  2  0  0  0  0
 16 20  1  0  0  0  0
 17 19  2  0  0  0  0
 17 21  1  0  0  0  0
 18 22  1  0  0  0  0
 19 23  1  0  0  0  0
 20 24  2  0  0  0  0
 20 50  1  0  0  0  0
 21 25  2  0  0  0  0
 21 51  1  0  0  0  0
 22 26  2  0  0  0  0
 22 52  1  0  0  0  0
 23 27  2  0  0  0  0
 23 53  1  0  0  0  0
 24 26  1  0  0  0  0
 24 54  1  0  0  0  0
 25 27  1  0  0  0  0
 25 55  1  0  0  0  0
 26 56  1  0  0  0  0
 27 57  1  0  0  0  0
M  CHG  1   4   1
M  END
