DB00634
 OpenBabel07062211533D

 24 24  0  0  0  0  0  0  0  0999 V2000
   -1.1420    1.3775   -1.1423 S   0  0  0  0  0  0  0  0  0  0  0  0
   -1.1331    2.8220   -0.9517 O   0  0  0  0  0  0  0  0  0  0  0  0
   -1.4312    0.8281   -2.4599 O   0  0  0  0  0  0  0  0  0  0  0  0
   -2.4947   -1.4328   -0.9993 O   0  0  0  0  0  0  0  0  0  0  0  0
   -2.2179    0.6771   -0.0062 N   0  0  0  0  0  0  0  0  0  0  0  0
    4.0872   -0.8336    0.6253 N   0  0  0  0  0  0  0  0  0  0  0  0
    0.3935    0.7283   -0.6235 C   0  0  0  0  0  0  0  0  0  0  0  0
    1.1610    1.4182    0.3150 C   0  0  0  0  0  0  0  0  0  0  0  0
    0.8528   -0.4802   -1.1475 C   0  0  0  0  0  0  0  0  0  0  0  0
    2.8471   -0.3086    0.2056 C   0  0  0  0  0  0  0  0  0  0  0  0
    2.3879    0.8997    0.7294 C   0  0  0  0  0  0  0  0  0  0  0  0
    2.0797   -0.9986   -0.7329 C   0  0  0  0  0  0  0  0  0  0  0  0
   -2.7701   -0.6392   -0.1065 C   0  0  0  0  0  0  0  0  0  0  0  0
   -3.7343   -0.9668    0.9975 C   0  0  0  0  0  0  0  0  0  0  0  0
    0.8192    2.3574    0.7405 H   0  0  0  0  0  0  0  0  0  0  0  0
    0.2714   -1.0377   -1.8763 H   0  0  0  0  0  0  0  0  0  0  0  0
   -2.5303    1.2795    0.7665 H   0  0  0  0  0  0  0  0  0  0  0  0
    2.9762    1.4459    1.4625 H   0  0  0  0  0  0  0  0  0  0  0  0
    2.4262   -1.9419   -1.1475 H   0  0  0  0  0  0  0  0  0  0  0  0
   -4.5745   -0.2678    0.9733 H   0  0  0  0  0  0  0  0  0  0  0  0
   -4.1145   -1.9836    0.8658 H   0  0  0  0  0  0  0  0  0  0  0  0
   -3.2259   -0.9007    1.9631 H   0  0  0  0  0  0  0  0  0  0  0  0
    4.6450   -0.3332    1.3045 H   0  0  0  0  0  0  0  0  0  0  0  0
    4.4212   -1.7090    0.2446 H   0  0  0  0  0  0  0  0  0  0  0  0
  1  2  2  0  0  0  0
  1  3  2  0  0  0  0
  1  5  1  0  0  0  0
  1  7  1  0  0  0  0
  4 13  2  0  0  0  0
  5 13  1  0  0  0  0
  5 17  1  0  0  0  0
  6 10  1  0  0  0  0
  6 23  1  0  0  0  0
  6 24  1  0  0  0  0
  7  8  2  0  0  0  0
  7  9  1  0  0  0  0
  8 11  1  0  0  0  0
  8 15  1  0  0  0  0
  9 12  2  0  0  0  0
  9 16  1  0  0  0  0
 10 11  2  0  0  0  0
 10 12  1  0  0  0  0
 11 18  1  0  0  0  0
 12 19  1  0  0  0  0
 13 14  1  0  0  0  0
 14 20  1  0  0  0  0
 14 21  1  0  0  0  0
 14 22  1  0  0  0  0
M  END
