DB00267
 OpenBabel07062211533D

 50 53  0  0  1  0  0  0  0  0999 V2000
    0.0594   -1.3756    1.8451 S   0  0  0  0  0  0  0  0  0  0  0  0
   -4.1131    0.5540    0.4494 S   0  0  0  0  0  0  0  0  0  0  0  0
    2.7751    3.7556   -1.4301 S   0  0  0  0  0  0  0  0  0  0  0  0
    0.8462   -1.8660   -2.7106 O   0  0  0  0  0  0  0  0  0  0  0  0
   -2.2397   -2.6070   -2.7509 O   0  0  0  0  0  0  0  0  0  0  0  0
   -2.7439   -0.4046   -2.3971 O   0  0  0  0  0  0  0  0  0  0  0  0
    3.8917   -1.3090   -1.8867 O   0  0  0  0  0  0  0  0  0  0  0  0
    5.5944   -1.2715    0.7116 O   0  0  0  0  0  0  0  0  0  0  0  0
   -0.3602   -2.0373   -0.6917 N   0  0  0  0  0  0  0  0  0  0  0  0
    2.5216   -1.2561    0.0186 N   0  0  0  0  0  0  0  0  0  0  0  0
    5.3634    0.0978    0.5197 N   0  0  0  0  0  0  0  0  0  0  0  0
   -6.5917    1.7809    0.5255 N   0  0  0  0  0  0  0  0  0  0  0  0
    4.6869    2.7447   -0.0142 N   0  0  0  0  0  0  0  0  0  0  0  0
   -6.7187   -0.3829    0.5928 N   0  0  0  0  0  0  0  0  0  0  0  0
   -7.9021    1.5065    0.5910 N   0  0  0  0  0  0  0  0  0  0  0  0
   -7.9735    0.1816    0.6314 N   0  0  0  0  0  0  0  0  0  0  0  0
    4.6270    5.1073   -0.0830 N   0  0  0  0  0  0  0  0  0  0  0  0
    0.3244   -2.5377    0.4864 C   0  0  1  0  0  0  0  0  0  0  0  0
    1.6313   -2.3664   -0.3183 C   0  0  1  0  0  0  0  0  0  0  0  0
    0.6997   -2.0710   -1.5283 C   0  0  0  0  0  0  0  0  0  0  0  0
   -1.6750   -1.6988   -0.7139 C   0  0  0  0  0  0  0  0  0  0  0  0
   -2.3796   -1.5237    0.4294 C   0  0  0  0  0  0  0  0  0  0  0  0
   -1.7530   -1.5877    1.8206 C   0  0  0  0  0  0  0  0  0  0  0  0
   -3.8591   -1.2280    0.4877 C   0  0  0  0  0  0  0  0  0  0  0  0
   -2.2820   -1.4673   -2.0331 C   0  0  0  0  0  0  0  0  0  0  0  0
    3.5561   -0.8504   -0.8066 C   0  0  0  0  0  0  0  0  0  0  0  0
    4.3359    0.3107   -0.2460 C   0  0  0  0  0  0  0  0  0  0  0  0
   -5.8790    0.6246    0.5270 C   0  0  0  0  0  0  0  0  0  0  0  0
    3.9568    1.6966   -0.5395 C   0  0  0  0  0  0  0  0  0  0  0  0
    2.8839    2.0468   -1.3319 C   0  0  0  0  0  0  0  0  0  0  0  0
   -6.1359    3.1466    0.4674 C   0  0  0  0  0  0  0  0  0  0  0  0
    4.1549    3.8772   -0.4172 C   0  0  0  0  0  0  0  0  0  0  0  0
    6.7274   -1.4133    1.5544 C   0  0  0  0  0  0  0  0  0  0  0  0
    0.0759   -3.5813    0.7132 H   0  0  0  0  0  0  0  0  0  0  0  0
    2.1908   -3.3027   -0.4314 H   0  0  0  0  0  0  0  0  0  0  0  0
   -2.1583   -0.7949    2.4575 H   0  0  0  0  0  0  0  0  0  0  0  0
   -2.0030   -2.5474    2.2861 H   0  0  0  0  0  0  0  0  0  0  0  0
    2.3896   -0.7541    0.8937 H   0  0  0  0  0  0  0  0  0  0  0  0
   -4.3780   -1.6902   -0.3596 H   0  0  0  0  0  0  0  0  0  0  0  0
   -4.2990   -1.6589    1.3944 H   0  0  0  0  0  0  0  0  0  0  0  0
   -2.6357   -2.4974   -3.6416 H   0  0  0  0  0  0  0  0  0  0  0  0
    2.1744    1.4137   -1.8462 H   0  0  0  0  0  0  0  0  0  0  0  0
   -5.5791    3.2883   -0.4621 H   0  0  0  0  0  0  0  0  0  0  0  0
   -6.9966    3.8203    0.4871 H   0  0  0  0  0  0  0  0  0  0  0  0
   -5.4992    3.3379    1.3346 H   0  0  0  0  0  0  0  0  0  0  0  0
    6.9134   -2.4795    1.7084 H   0  0  0  0  0  0  0  0  0  0  0  0
    6.5400   -0.9455    2.5259 H   0  0  0  0  0  0  0  0  0  0  0  0
    7.6095   -0.9670    1.0848 H   0  0  0  0  0  0  0  0  0  0  0  0
    5.4399    5.2239    0.5129 H   0  0  0  0  0  0  0  0  0  0  0  0
    4.1858    5.9580   -0.4167 H   0  0  0  0  0  0  0  0  0  0  0  0
  1 18  1  0  0  0  0
  1 23  1  0  0  0  0
  2 24  1  0  0  0  0
  2 28  1  0  0  0  0
  3 30  1  0  0  0  0
  3 32  1  0  0  0  0
  4 20  2  0  0  0  0
  5 25  1  0  0  0  0
  5 41  1  0  0  0  0
  6 25  2  0  0  0  0
  7 26  2  0  0  0  0
  8 11  1  0  0  0  0
  8 33  1  0  0  0  0
  9 18  1  0  0  0  0
  9 20  1  0  0  0  0
  9 21  1  0  0  0  0
 10 19  1  0  0  0  0
 10 26  1  0  0  0  0
 10 38  1  0  0  0  0
 11 27  2  0  0  0  0
 12 15  1  0  0  0  0
 12 28  1  0  0  0  0
 12 31  1  0  0  0  0
 13 29  1  0  0  0  0
 13 32  2  0  0  0  0
 14 16  1  0  0  0  0
 14 28  2  0  0  0  0
 15 16  2  0  0  0  0
 17 32  1  0  0  0  0
 17 49  1  0  0  0  0
 17 50  1  0  0  0  0
 18 19  1  6  0  0  0
 18 34  1  0  0  0  0
 19 20  1  0  0  0  0
 19 35  1  6  0  0  0
 21 22  2  0  0  0  0
 21 25  1  0  0  0  0
 22 23  1  0  0  0  0
 22 24  1  0  0  0  0
 23 36  1  0  0  0  0
 23 37  1  0  0  0  0
 24 39  1  0  0  0  0
 24 40  1  0  0  0  0
 26 27  1  0  0  0  0
 27 29  1  0  0  0  0
 29 30  2  0  0  0  0
 30 42  1  0  0  0  0
 31 43  1  0  0  0  0
 31 44  1  0  0  0  0
 31 45  1  0  0  0  0
 33 46  1  0  0  0  0
 33 47  1  0  0  0  0
 33 48  1  0  0  0  0
M  END
