DB00388
 OpenBabel07062211533D

 25 25  0  0  1  0  0  0  0  0999 V2000
   -0.6256   -1.8888    1.8054 O   0  0  0  0  0  0  0  0  0  0  0  0
    2.9513    1.8595    1.3527 O   0  0  0  0  0  0  0  0  0  0  0  0
   -1.9418    0.4251   -0.8017 N   0  0  0  0  0  0  0  0  0  0  0  0
   -0.6985   -1.2786    0.5098 C   0  0  1  0  0  0  0  0  0  0  0  0
   -1.8059   -0.2059    0.5091 C   0  0  0  0  0  0  0  0  0  0  0  0
    0.6365   -0.7120    0.1632 C   0  0  0  0  0  0  0  0  0  0  0  0
    1.1755    0.3217    0.9292 C   0  0  0  0  0  0  0  0  0  0  0  0
    1.3465   -1.2159   -0.9266 C   0  0  0  0  0  0  0  0  0  0  0  0
    2.4248    0.8514    0.6053 C   0  0  0  0  0  0  0  0  0  0  0  0
    2.5955   -0.6864   -1.2504 C   0  0  0  0  0  0  0  0  0  0  0  0
    3.1346    0.3473   -0.4846 C   0  0  0  0  0  0  0  0  0  0  0  0
   -3.0071    1.4160   -0.7896 C   0  0  0  0  0  0  0  0  0  0  0  0
   -0.9707   -2.0755   -0.1940 H   0  0  0  0  0  0  0  0  0  0  0  0
   -1.6115    0.5471    1.2830 H   0  0  0  0  0  0  0  0  0  0  0  0
   -2.7506   -0.6878    0.7943 H   0  0  0  0  0  0  0  0  0  0  0  0
    0.6405    0.7172    1.7887 H   0  0  0  0  0  0  0  0  0  0  0  0
    0.9401   -2.0207   -1.5334 H   0  0  0  0  0  0  0  0  0  0  0  0
   -2.1472   -0.2862   -1.5029 H   0  0  0  0  0  0  0  0  0  0  0  0
    3.1483   -1.0786   -2.0990 H   0  0  0  0  0  0  0  0  0  0  0  0
   -1.5029   -2.2589    2.0028 H   0  0  0  0  0  0  0  0  0  0  0  0
    4.1088    0.7510   -0.7473 H   0  0  0  0  0  0  0  0  0  0  0  0
   -2.7992    2.2137   -0.0691 H   0  0  0  0  0  0  0  0  0  0  0  0
   -3.9759    0.9634   -0.5540 H   0  0  0  0  0  0  0  0  0  0  0  0
   -3.0847    1.8794   -1.7781 H   0  0  0  0  0  0  0  0  0  0  0  0
    3.8193    2.1026    0.9871 H   0  0  0  0  0  0  0  0  0  0  0  0
  1  4  1  0  0  0  0
  1 20  1  0  0  0  0
  2  9  1  0  0  0  0
  2 25  1  0  0  0  0
  3  5  1  0  0  0  0
  3 12  1  0  0  0  0
  3 18  1  0  0  0  0
  4  5  1  0  0  0  0
  4  6  1  0  0  0  0
  4 13  1  6  0  0  0
  5 14  1  0  0  0  0
  5 15  1  0  0  0  0
  6  7  2  0  0  0  0
  6  8  1  0  0  0  0
  7  9  1  0  0  0  0
  7 16  1  0  0  0  0
  8 10  2  0  0  0  0
  8 17  1  0  0  0  0
  9 11  2  0  0  0  0
 10 11  1  0  0  0  0
 10 19  1  0  0  0  0
 11 21  1  0  0  0  0
 12 22  1  0  0  0  0
 12 23  1  0  0  0  0
 12 24  1  0  0  0  0
M  END
