DB00684
 OpenBabel07062211533D

 69 71  0  0  1  0  0  0  0  0999 V2000
   -1.3740    0.9857    0.3458 O   0  0  0  0  0  0  0  0  0  0  0  0
    1.1847    0.1573   -0.6104 O   0  0  0  0  0  0  0  0  0  0  0  0
    0.0378    3.2468   -2.1430 O   0  0  0  0  0  0  0  0  0  0  0  0
   -3.6953    0.7511   -0.0662 O   0  0  0  0  0  0  0  0  0  0  0  0
    3.2678   -0.8628   -1.0807 O   0  0  0  0  0  0  0  0  0  0  0  0
   -1.7707    0.3273    3.0100 O   0  0  0  0  0  0  0  0  0  0  0  0
   -3.4502   -2.9237   -0.1447 O   0  0  0  0  0  0  0  0  0  0  0  0
    2.8827   -3.3763    1.5765 O   0  0  0  0  0  0  0  0  0  0  0  0
   -4.5186    0.3736   -2.6389 O   0  0  0  0  0  0  0  0  0  0  0  0
   -0.2685    4.4989    0.5847 N   0  0  0  0  0  0  0  0  0  0  0  0
    2.4671    3.6165   -0.4347 N   0  0  0  0  0  0  0  0  0  0  0  0
   -0.1730   -1.9908   -1.9372 N   0  0  0  0  0  0  0  0  0  0  0  0
   -2.9485   -2.3599    2.6561 N   0  0  0  0  0  0  0  0  0  0  0  0
    5.5023   -0.1672    0.4878 N   0  0  0  0  0  0  0  0  0  0  0  0
   -0.9952    2.2617   -0.1753 C   0  0  2  0  0  0  0  0  0  0  0  0
    1.3047    1.5168   -1.0350 C   0  0  1  0  0  0  0  0  0  0  0  0
   -0.0948    2.0374   -1.4027 C   0  0  2  0  0  0  0  0  0  0  0  0
   -0.3262    3.0814    0.9445 C   0  0  1  0  0  0  0  0  0  0  0  0
    1.9978    2.3284    0.0762 C   0  0  2  0  0  0  0  0  0  0  0  0
    1.0674    2.5212    1.2876 C   0  0  0  0  0  0  0  0  0  0  0  0
   -2.6856    1.0254    0.9054 C   0  0  1  0  0  0  0  0  0  0  0  0
    1.8994   -0.7194   -1.4788 C   0  0  1  0  0  0  0  0  0  0  0  0
   -2.7980    0.0374    2.0685 C   0  0  1  0  0  0  0  0  0  0  0  0
    1.2271   -2.0983   -1.5367 C   0  0  1  0  0  0  0  0  0  0  0  0
   -2.6934   -1.4092    1.5676 C   0  0  2  0  0  0  0  0  0  0  0  0
   -3.7045   -1.6457    0.4333 C   0  0  1  0  0  0  0  0  0  0  0  0
   -3.5883   -0.5549   -0.6435 C   0  0  1  0  0  0  0  0  0  0  0  0
    1.3402   -2.8076   -0.1871 C   0  0  0  0  0  0  0  0  0  0  0  0
    2.8028   -2.8545    0.2559 C   0  0  1  0  0  0  0  0  0  0  0  0
    3.4296   -1.4562    0.2126 C   0  0  1  0  0  0  0  0  0  0  0  0
   -4.6892   -0.6675   -1.6950 C   0  0  0  0  0  0  0  0  0  0  0  0
    4.9258   -1.5032    0.5087 C   0  0  0  0  0  0  0  0  0  0  0  0
   -1.8920    2.7913   -0.5294 H   0  0  0  0  0  0  0  0  0  0  0  0
    1.9436    1.5905   -1.9266 H   0  0  0  0  0  0  0  0  0  0  0  0
   -0.5844    1.3045   -2.0567 H   0  0  0  0  0  0  0  0  0  0  0  0
   -0.9261    3.0114    1.8594 H   0  0  0  0  0  0  0  0  0  0  0  0
    2.8768    1.7724    0.4246 H   0  0  0  0  0  0  0  0  0  0  0  0
    1.5540    3.1578    2.0388 H   0  0  0  0  0  0  0  0  0  0  0  0
    0.9346    1.5460    1.7761 H   0  0  0  0  0  0  0  0  0  0  0  0
   -2.8926    2.0240    1.3101 H   0  0  0  0  0  0  0  0  0  0  0  0
    1.9024   -0.3318   -2.5062 H   0  0  0  0  0  0  0  0  0  0  0  0
   -3.7678    0.1740    2.5649 H   0  0  0  0  0  0  0  0  0  0  0  0
    1.7568   -2.7089   -2.2797 H   0  0  0  0  0  0  0  0  0  0  0  0
   -1.6738   -1.6065    1.2127 H   0  0  0  0  0  0  0  0  0  0  0  0
   -4.7232   -1.6515    0.8417 H   0  0  0  0  0  0  0  0  0  0  0  0
   -2.6260   -0.6242   -1.1652 H   0  0  0  0  0  0  0  0  0  0  0  0
    0.9397   -3.8277   -0.2461 H   0  0  0  0  0  0  0  0  0  0  0  0
    0.7401   -2.2974    0.5786 H   0  0  0  0  0  0  0  0  0  0  0  0
   -1.2129    4.8580    0.4512 H   0  0  0  0  0  0  0  0  0  0  0  0
    0.1373    5.0317    1.3528 H   0  0  0  0  0  0  0  0  0  0  0  0
    3.1421    3.4647   -1.1830 H   0  0  0  0  0  0  0  0  0  0  0  0
    2.9611    4.1187    0.3017 H   0  0  0  0  0  0  0  0  0  0  0  0
    3.3545   -3.5272   -0.4126 H   0  0  0  0  0  0  0  0  0  0  0  0
    2.9536   -0.8149    0.9674 H   0  0  0  0  0  0  0  0  0  0  0  0
    0.5539    3.0487   -2.9428 H   0  0  0  0  0  0  0  0  0  0  0  0
   -5.6774   -0.5458   -1.2388 H   0  0  0  0  0  0  0  0  0  0  0  0
   -4.6470   -1.6288   -2.2161 H   0  0  0  0  0  0  0  0  0  0  0  0
    5.4396   -2.1097   -0.2462 H   0  0  0  0  0  0  0  0  0  0  0  0
    5.1134   -1.9547    1.4882 H   0  0  0  0  0  0  0  0  0  0  0  0
   -0.5788   -2.9214   -2.0251 H   0  0  0  0  0  0  0  0  0  0  0  0
   -0.2353   -1.5591   -2.8581 H   0  0  0  0  0  0  0  0  0  0  0  0
   -2.8287   -3.3117    2.3117 H   0  0  0  0  0  0  0  0  0  0  0  0
   -2.2556   -2.2280    3.3918 H   0  0  0  0  0  0  0  0  0  0  0  0
   -1.9000    1.2417    3.3145 H   0  0  0  0  0  0  0  0  0  0  0  0
   -2.5537   -2.9094   -0.5211 H   0  0  0  0  0  0  0  0  0  0  0  0
    2.4772   -4.2601    1.5677 H   0  0  0  0  0  0  0  0  0  0  0  0
    6.5121   -0.2306    0.6097 H   0  0  0  0  0  0  0  0  0  0  0  0
    5.3491    0.2592   -0.4251 H   0  0  0  0  0  0  0  0  0  0  0  0
   -5.2299    0.2849   -3.2959 H   0  0  0  0  0  0  0  0  0  0  0  0
  1 15  1  0  0  0  0
  1 21  1  0  0  0  0
  2 16  1  0  0  0  0
  2 22  1  0  0  0  0
  3 17  1  0  0  0  0
  3 55  1  0  0  0  0
  4 21  1  0  0  0  0
  4 27  1  0  0  0  0
  5 22  1  0  0  0  0
  5 30  1  0  0  0  0
  6 23  1  0  0  0  0
  6 64  1  0  0  0  0
  7 26  1  0  0  0  0
  7 65  1  0  0  0  0
  8 29  1  0  0  0  0
  8 66  1  0  0  0  0
  9 31  1  0  0  0  0
  9 69  1  0  0  0  0
 10 18  1  0  0  0  0
 10 49  1  0  0  0  0
 10 50  1  0  0  0  0
 11 19  1  0  0  0  0
 11 51  1  0  0  0  0
 11 52  1  0  0  0  0
 12 24  1  0  0  0  0
 12 60  1  0  0  0  0
 12 61  1  0  0  0  0
 13 25  1  0  0  0  0
 13 62  1  0  0  0  0
 13 63  1  0  0  0  0
 14 32  1  0  0  0  0
 14 67  1  0  0  0  0
 14 68  1  0  0  0  0
 15 17  1  6  0  0  0
 15 33  1  0  0  0  0
 16 17  1  6  0  0  0
 16 34  1  0  0  0  0
 17 35  1  6  0  0  0
 18 15  1  6  0  0  0
 18 20  1  0  0  0  0
 18 36  1  0  0  0  0
 19 16  1  6  0  0  0
 19 20  1  0  0  0  0
 19 37  1  0  0  0  0
 20 38  1  0  0  0  0
 20 39  1  0  0  0  0
 21 23  1  1  0  0  0
 21 40  1  0  0  0  0
 22 24  1  1  0  0  0
 22 41  1  0  0  0  0
 23 25  1  6  0  0  0
 23 42  1  0  0  0  0
 24 28  1  0  0  0  0
 24 43  1  6  0  0  0
 25 26  1  6  0  0  0
 25 44  1  0  0  0  0
 26 27  1  6  0  0  0
 26 45  1  0  0  0  0
 27 31  1  0  0  0  0
 27 46  1  6  0  0  0
 28 29  1  0  0  0  0
 28 47  1  0  0  0  0
 28 48  1  0  0  0  0
 29 30  1  6  0  0  0
 29 53  1  0  0  0  0
 30 32  1  0  0  0  0
 30 54  1  1  0  0  0
 31 56  1  0  0  0  0
 31 57  1  0  0  0  0
 32 58  1  0  0  0  0
 32 59  1  0  0  0  0
M  END
