DB00754
 OpenBabel07062211533D

 27 28  0  0  1  0  0  0  0  0999 V2000
    0.8157    0.0546    2.1123 O   0  0  0  0  0  0  0  0  0  0  0  0
    2.3227   -1.6220   -1.9049 O   0  0  0  0  0  0  0  0  0  0  0  0
    1.9316   -0.6323    0.1784 N   0  0  0  0  0  0  0  0  0  0  0  0
    0.2696   -1.7498   -0.8031 N   0  0  0  0  0  0  0  0  0  0  0  0
   -0.3116   -1.2972    0.4379 C   0  0  1  0  0  0  0  0  0  0  0  0
    0.8598   -0.5353    1.0403 C   0  0  0  0  0  0  0  0  0  0  0  0
   -1.4938   -0.4272    0.2132 C   0  0  0  0  0  0  0  0  0  0  0  0
    1.6028   -1.3598   -0.9501 C   0  0  0  0  0  0  0  0  0  0  0  0
    3.2350   -0.0400    0.4035 C   0  0  0  0  0  0  0  0  0  0  0  0
   -2.7841   -0.9620    0.2783 C   0  0  0  0  0  0  0  0  0  0  0  0
   -1.3247    0.9325   -0.0655 C   0  0  0  0  0  0  0  0  0  0  0  0
    3.3134    1.3615   -0.1656 C   0  0  0  0  0  0  0  0  0  0  0  0
   -3.8946   -0.1447    0.0668 C   0  0  0  0  0  0  0  0  0  0  0  0
   -2.4352    1.7497   -0.2766 C   0  0  0  0  0  0  0  0  0  0  0  0
   -3.7201    1.2112   -0.2104 C   0  0  0  0  0  0  0  0  0  0  0  0
   -0.5296   -2.1688    1.0639 H   0  0  0  0  0  0  0  0  0  0  0  0
   -0.2244   -2.3138   -1.4878 H   0  0  0  0  0  0  0  0  0  0  0  0
    3.4245   -0.0086    1.4818 H   0  0  0  0  0  0  0  0  0  0  0  0
    3.9964   -0.6709   -0.0672 H   0  0  0  0  0  0  0  0  0  0  0  0
   -2.9343   -2.0171    0.4920 H   0  0  0  0  0  0  0  0  0  0  0  0
   -0.3402    1.3846   -0.1451 H   0  0  0  0  0  0  0  0  0  0  0  0
    3.1331    1.3590   -1.2457 H   0  0  0  0  0  0  0  0  0  0  0  0
    2.5649    2.0155    0.2942 H   0  0  0  0  0  0  0  0  0  0  0  0
    4.3025    1.7932    0.0153 H   0  0  0  0  0  0  0  0  0  0  0  0
   -4.8952   -0.5641    0.1176 H   0  0  0  0  0  0  0  0  0  0  0  0
   -2.2995    2.8045   -0.4972 H   0  0  0  0  0  0  0  0  0  0  0  0
   -4.5848    1.8472   -0.3763 H   0  0  0  0  0  0  0  0  0  0  0  0
  1  6  2  0  0  0  0
  2  8  2  0  0  0  0
  3  6  1  0  0  0  0
  3  8  1  0  0  0  0
  3  9  1  0  0  0  0
  4  5  1  0  0  0  0
  4  8  1  0  0  0  0
  4 17  1  0  0  0  0
  5  6  1  0  0  0  0
  5  7  1  0  0  0  0
  5 16  1  1  0  0  0
  7 10  2  0  0  0  0
  7 11  1  0  0  0  0
  9 12  1  0  0  0  0
  9 18  1  0  0  0  0
  9 19  1  0  0  0  0
 10 13  1  0  0  0  0
 10 20  1  0  0  0  0
 11 14  2  0  0  0  0
 11 21  1  0  0  0  0
 12 22  1  0  0  0  0
 12 23  1  0  0  0  0
 12 24  1  0  0  0  0
 13 15  2  0  0  0  0
 13 25  1  0  0  0  0
 14 15  1  0  0  0  0
 14 26  1  0  0  0  0
 15 27  1  0  0  0  0
M  END
