DB00984
 OpenBabel07062211533D

 64 68  0  0  1  0  0  0  0  0999 V2000
    2.0993    0.1768    0.2737 O   0  0  0  0  0  0  0  0  0  0  0  0
   -8.6372   -1.3269    0.7125 O   0  0  0  0  0  0  0  0  0  0  0  0
    3.2581    1.5849    1.6871 O   0  0  0  0  0  0  0  0  0  0  0  0
   -1.4032    1.1842    0.3729 C   0  0  2  0  0  0  0  0  0  0  0  0
   -0.3503    0.1237   -0.0045 C   0  0  2  0  0  0  0  0  0  0  0  0
   -2.7639    0.9117   -0.2704 C   0  0  1  0  0  0  0  0  0  0  0  0
   -3.2797   -0.4746    0.2173 C   0  0  2  0  0  0  0  0  0  0  0  0
   -0.8263   -1.2321    0.5314 C   0  0  0  0  0  0  0  0  0  0  0  0
    0.8715    0.7141    0.7258 C   0  0  2  0  0  0  0  0  0  0  0  0
   -0.6954    2.5061    0.0883 C   0  0  0  0  0  0  0  0  0  0  0  0
   -2.2265   -1.5925    0.0035 C   0  0  0  0  0  0  0  0  0  0  0  0
   -4.6565   -0.8201   -0.4286 C   0  0  2  0  0  0  0  0  0  0  0  0
    0.7745    2.2277    0.4519 C   0  0  0  0  0  0  0  0  0  0  0  0
   -3.7891    1.9994    0.0717 C   0  0  0  0  0  0  0  0  0  0  0  0
   -0.0649    0.0052   -1.5233 C   0  0  0  0  0  0  0  0  0  0  0  0
   -5.1286    1.7061   -0.5943 C   0  0  0  0  0  0  0  0  0  0  0  0
   -5.6445    0.3276   -0.2632 C   0  0  0  0  0  0  0  0  0  0  0  0
   -5.2082   -2.1387    0.1520 C   0  0  0  0  0  0  0  0  0  0  0  0
   -6.6712   -2.3605   -0.1885 C   0  0  0  0  0  0  0  0  0  0  0  0
   -6.9234    0.1660    0.1119 C   0  0  0  0  0  0  0  0  0  0  0  0
   -7.4954   -1.1897    0.2798 C   0  0  0  0  0  0  0  0  0  0  0  0
    3.2349    0.7035    0.8390 C   0  0  0  0  0  0  0  0  0  0  0  0
    4.4521    0.0271    0.2507 C   0  0  0  0  0  0  0  0  0  0  0  0
    5.7496    0.5518    0.8648 C   0  0  0  0  0  0  0  0  0  0  0  0
    6.9592   -0.1289    0.2787 C   0  0  0  0  0  0  0  0  0  0  0  0
    7.4443   -1.2863    0.8702 C   0  0  0  0  0  0  0  0  0  0  0  0
    7.5695    0.4115   -0.8440 C   0  0  0  0  0  0  0  0  0  0  0  0
    8.5639   -1.9168    0.3276 C   0  0  0  0  0  0  0  0  0  0  0  0
    8.6891   -0.2190   -1.3866 C   0  0  0  0  0  0  0  0  0  0  0  0
    9.1863   -1.3832   -0.8007 C   0  0  0  0  0  0  0  0  0  0  0  0
   -1.5564    1.1511    1.4649 H   0  0  0  0  0  0  0  0  0  0  0  0
   -2.6569    0.8916   -1.3621 H   0  0  0  0  0  0  0  0  0  0  0  0
   -3.4350   -0.3986    1.3049 H   0  0  0  0  0  0  0  0  0  0  0  0
   -0.8658   -1.2088    1.6283 H   0  0  0  0  0  0  0  0  0  0  0  0
   -0.1164   -2.0248    0.2662 H   0  0  0  0  0  0  0  0  0  0  0  0
    0.7816    0.5287    1.8056 H   0  0  0  0  0  0  0  0  0  0  0  0
   -1.1048    3.3275    0.6853 H   0  0  0  0  0  0  0  0  0  0  0  0
   -0.7811    2.7883   -0.9669 H   0  0  0  0  0  0  0  0  0  0  0  0
   -2.1682   -1.8431   -1.0621 H   0  0  0  0  0  0  0  0  0  0  0  0
   -2.5443   -2.5076    0.5160 H   0  0  0  0  0  0  0  0  0  0  0  0
   -4.5075   -0.9597   -1.5088 H   0  0  0  0  0  0  0  0  0  0  0  0
    1.4366    2.5536   -0.3584 H   0  0  0  0  0  0  0  0  0  0  0  0
    1.0490    2.7995    1.3454 H   0  0  0  0  0  0  0  0  0  0  0  0
   -3.4334    2.9781   -0.2705 H   0  0  0  0  0  0  0  0  0  0  0  0
   -3.9206    2.0690    1.1592 H   0  0  0  0  0  0  0  0  0  0  0  0
    0.3180    0.9373   -1.9508 H   0  0  0  0  0  0  0  0  0  0  0  0
    0.6880   -0.7684   -1.7145 H   0  0  0  0  0  0  0  0  0  0  0  0
   -0.9519   -0.2681   -2.1007 H   0  0  0  0  0  0  0  0  0  0  0  0
   -5.0146    1.7792   -1.6837 H   0  0  0  0  0  0  0  0  0  0  0  0
   -5.8462    2.4825   -0.3029 H   0  0  0  0  0  0  0  0  0  0  0  0
   -5.0961   -2.1371    1.2447 H   0  0  0  0  0  0  0  0  0  0  0  0
   -4.6297   -2.9889   -0.2272 H   0  0  0  0  0  0  0  0  0  0  0  0
   -7.0290   -3.2663    0.3127 H   0  0  0  0  0  0  0  0  0  0  0  0
   -6.8161   -2.4821   -1.2673 H   0  0  0  0  0  0  0  0  0  0  0  0
   -7.5998    1.0048    0.2352 H   0  0  0  0  0  0  0  0  0  0  0  0
    4.4488    0.2036   -0.8312 H   0  0  0  0  0  0  0  0  0  0  0  0
    4.3615   -1.0508    0.4295 H   0  0  0  0  0  0  0  0  0  0  0  0
    5.8281    1.6369    0.7151 H   0  0  0  0  0  0  0  0  0  0  0  0
    5.7380    0.4105    1.9536 H   0  0  0  0  0  0  0  0  0  0  0  0
    6.9653   -1.7108    1.7480 H   0  0  0  0  0  0  0  0  0  0  0  0
    7.1888    1.3167   -1.3086 H   0  0  0  0  0  0  0  0  0  0  0  0
    8.9507   -2.8236    0.7833 H   0  0  0  0  0  0  0  0  0  0  0  0
    9.1736    0.1960   -2.2657 H   0  0  0  0  0  0  0  0  0  0  0  0
   10.0579   -1.8743   -1.2235 H   0  0  0  0  0  0  0  0  0  0  0  0
  1  9  1  0  0  0  0
  1 22  1  0  0  0  0
  2 21  2  0  0  0  0
  3 22  2  0  0  0  0
  4  5  1  6  0  0  0
  4 10  1  0  0  0  0
  4 31  1  0  0  0  0
  5  8  1  0  0  0  0
  5  9  1  1  0  0  0
  5 15  1  0  0  0  0
  6  4  1  1  0  0  0
  6 14  1  0  0  0  0
  6 32  1  0  0  0  0
  7  6  1  6  0  0  0
  7 11  1  0  0  0  0
  7 33  1  0  0  0  0
  8 11  1  0  0  0  0
  8 34  1  0  0  0  0
  8 35  1  0  0  0  0
  9 13  1  0  0  0  0
  9 36  1  1  0  0  0
 10 13  1  0  0  0  0
 10 37  1  0  0  0  0
 10 38  1  0  0  0  0
 11 39  1  0  0  0  0
 11 40  1  0  0  0  0
 12  7  1  1  0  0  0
 12 17  1  0  0  0  0
 12 18  1  0  0  0  0
 12 41  1  0  0  0  0
 13 42  1  0  0  0  0
 13 43  1  0  0  0  0
 14 16  1  0  0  0  0
 14 44  1  0  0  0  0
 14 45  1  0  0  0  0
 15 46  1  0  0  0  0
 15 47  1  0  0  0  0
 15 48  1  0  0  0  0
 16 17  1  0  0  0  0
 16 49  1  0  0  0  0
 16 50  1  0  0  0  0
 17 20  2  0  0  0  0
 18 19  1  0  0  0  0
 18 51  1  0  0  0  0
 18 52  1  0  0  0  0
 19 21  1  0  0  0  0
 19 53  1  0  0  0  0
 19 54  1  0  0  0  0
 20 21  1  0  0  0  0
 20 55  1  0  0  0  0
 22 23  1  0  0  0  0
 23 24  1  0  0  0  0
 23 56  1  0  0  0  0
 23 57  1  0  0  0  0
 24 25  1  0  0  0  0
 24 58  1  0  0  0  0
 24 59  1  0  0  0  0
 25 26  2  0  0  0  0
 25 27  1  0  0  0  0
 26 28  1  0  0  0  0
 26 60  1  0  0  0  0
 27 29  2  0  0  0  0
 27 61  1  0  0  0  0
 28 30  2  0  0  0  0
 28 62  1  0  0  0  0
 29 30  1  0  0  0  0
 29 63  1  0  0  0  0
 30 64  1  0  0  0  0
M  END
