DB00553
 OpenBabel07062211533D

 24 26  0  0  0  0  0  0  0  0999 V2000
    2.7348   -0.0342    0.3844 O   0  0  0  0  0  0  0  0  0  0  0  0
   -1.9087   -1.3926    0.3559 O   0  0  0  0  0  0  0  0  0  0  0  0
    0.7371   -2.1409    0.6373 O   0  0  0  0  0  0  0  0  0  0  0  0
   -4.1337   -1.9343    0.3233 O   0  0  0  0  0  0  0  0  0  0  0  0
    1.1104    1.4947    0.0251 C   0  0  0  0  0  0  0  0  0  0  0  0
    1.3894    0.1542    0.2747 C   0  0  0  0  0  0  0  0  0  0  0  0
   -1.2416    0.9213   -0.0094 C   0  0  0  0  0  0  0  0  0  0  0  0
   -0.9002   -0.4075    0.2416 C   0  0  0  0  0  0  0  0  0  0  0  0
    0.4207   -0.8393    0.3925 C   0  0  0  0  0  0  0  0  0  0  0  0
   -0.2335    1.8916   -0.1211 C   0  0  0  0  0  0  0  0  0  0  0  0
    2.3701    2.1491   -0.0167 C   0  0  0  0  0  0  0  0  0  0  0  0
   -2.6472    1.2680   -0.1499 C   0  0  0  0  0  0  0  0  0  0  0  0
    3.3192    1.1790    0.2069 C   0  0  0  0  0  0  0  0  0  0  0  0
   -3.5900    0.3289   -0.0402 C   0  0  0  0  0  0  0  0  0  0  0  0
   -3.2578   -1.0822    0.2245 C   0  0  0  0  0  0  0  0  0  0  0  0
    1.5664   -2.7977   -0.3197 C   0  0  0  0  0  0  0  0  0  0  0  0
   -0.4764    2.9326   -0.3165 H   0  0  0  0  0  0  0  0  0  0  0  0
    2.5617    3.1989   -0.1887 H   0  0  0  0  0  0  0  0  0  0  0  0
   -2.9166    2.3003   -0.3452 H   0  0  0  0  0  0  0  0  0  0  0  0
    4.3977    1.1902    0.2667 H   0  0  0  0  0  0  0  0  0  0  0  0
   -4.6390    0.5841   -0.1444 H   0  0  0  0  0  0  0  0  0  0  0  0
    1.3106   -2.5008   -1.3425 H   0  0  0  0  0  0  0  0  0  0  0  0
    1.4066   -3.8754   -0.2234 H   0  0  0  0  0  0  0  0  0  0  0  0
    2.6200   -2.5883   -0.1151 H   0  0  0  0  0  0  0  0  0  0  0  0
  1  6  1  0  0  0  0
  1 13  1  0  0  0  0
  2  8  1  0  0  0  0
  2 15  1  0  0  0  0
  3  9  1  0  0  0  0
  3 16  1  0  0  0  0
  4 15  2  0  0  0  0
  5  6  2  0  0  0  0
  5 10  1  0  0  0  0
  5 11  1  0  0  0  0
  6  9  1  0  0  0  0
  7  8  1  0  0  0  0
  7 10  2  0  0  0  0
  7 12  1  0  0  0  0
  8  9  2  0  0  0  0
 10 17  1  0  0  0  0
 11 13  2  0  0  0  0
 11 18  1  0  0  0  0
 12 14  2  0  0  0  0
 12 19  1  0  0  0  0
 13 20  1  0  0  0  0
 14 15  1  0  0  0  0
 14 21  1  0  0  0  0
 16 22  1  0  0  0  0
 16 23  1  0  0  0  0
 16 24  1  0  0  0  0
M  END
