DB00208
 OpenBabel07062211533D

 31 33  0  0  0  0  0  0  0  0999 V2000
    2.3422   -2.2342   -1.8892 Cl  0  0  0  0  0  0  0  0  0  0  0  0
   -4.4676    0.7195   -0.9162 S   0  0  0  0  0  0  0  0  0  0  0  0
   -0.4428   -0.9441    0.0585 N   0  0  0  0  0  0  0  0  0  0  0  0
   -1.5565   -1.8464    0.4192 C   0  0  0  0  0  0  0  0  0  0  0  0
   -0.7143    0.4505    0.4744 C   0  0  0  0  0  0  0  0  0  0  0  0
   -2.8330   -1.4990   -0.3727 C   0  0  0  0  0  0  0  0  0  0  0  0
   -2.0548    0.8883   -0.0348 C   0  0  0  0  0  0  0  0  0  0  0  0
   -3.0294   -0.0191   -0.3965 C   0  0  0  0  0  0  0  0  0  0  0  0
    0.8090   -1.4102    0.6552 C   0  0  0  0  0  0  0  0  0  0  0  0
    1.9805   -0.5636    0.2337 C   0  0  0  0  0  0  0  0  0  0  0  0
   -2.5179    2.2299   -0.1854 C   0  0  0  0  0  0  0  0  0  0  0  0
   -3.8125    2.2820   -0.6579 C   0  0  0  0  0  0  0  0  0  0  0  0
    2.7207   -0.8706   -0.9010 C   0  0  0  0  0  0  0  0  0  0  0  0
    2.3021    0.5392    1.0157 C   0  0  0  0  0  0  0  0  0  0  0  0
    3.7994   -0.0621   -1.2600 C   0  0  0  0  0  0  0  0  0  0  0  0
    3.3809    1.3475    0.6567 C   0  0  0  0  0  0  0  0  0  0  0  0
    4.1294    1.0468   -0.4810 C   0  0  0  0  0  0  0  0  0  0  0  0
   -1.7582   -1.7895    1.4976 H   0  0  0  0  0  0  0  0  0  0  0  0
   -1.2961   -2.8879    0.1937 H   0  0  0  0  0  0  0  0  0  0  0  0
    0.0110    1.1411    0.0326 H   0  0  0  0  0  0  0  0  0  0  0  0
   -0.7029    0.5578    1.5665 H   0  0  0  0  0  0  0  0  0  0  0  0
   -3.6933   -2.0043    0.0800 H   0  0  0  0  0  0  0  0  0  0  0  0
   -2.7330   -1.8615   -1.4035 H   0  0  0  0  0  0  0  0  0  0  0  0
    0.9920   -2.4614    0.4028 H   0  0  0  0  0  0  0  0  0  0  0  0
    0.7379   -1.4067    1.7530 H   0  0  0  0  0  0  0  0  0  0  0  0
   -1.9347    3.1127    0.0431 H   0  0  0  0  0  0  0  0  0  0  0  0
   -4.4049    3.1627   -0.8625 H   0  0  0  0  0  0  0  0  0  0  0  0
    1.7434    0.7809    1.9156 H   0  0  0  0  0  0  0  0  0  0  0  0
    4.3930   -0.2828   -2.1435 H   0  0  0  0  0  0  0  0  0  0  0  0
    3.6404    2.2088    1.2655 H   0  0  0  0  0  0  0  0  0  0  0  0
    4.9700    1.6757   -0.7597 H   0  0  0  0  0  0  0  0  0  0  0  0
  1 13  1  0  0  0  0
  2  8  1  0  0  0  0
  2 12  1  0  0  0  0
  3  4  1  0  0  0  0
  3  5  1  0  0  0  0
  3  9  1  0  0  0  0
  4  6  1  0  0  0  0
  4 18  1  0  0  0  0
  4 19  1  0  0  0  0
  5  7  1  0  0  0  0
  5 20  1  0  0  0  0
  5 21  1  0  0  0  0
  6  8  1  0  0  0  0
  6 22  1  0  0  0  0
  6 23  1  0  0  0  0
  7  8  2  0  0  0  0
  7 11  1  0  0  0  0
  9 10  1  0  0  0  0
  9 24  1  0  0  0  0
  9 25  1  0  0  0  0
 10 13  2  0  0  0  0
 10 14  1  0  0  0  0
 11 12  2  0  0  0  0
 11 26  1  0  0  0  0
 12 27  1  0  0  0  0
 13 15  1  0  0  0  0
 14 16  2  0  0  0  0
 14 28  1  0  0  0  0
 15 17  2  0  0  0  0
 15 29  1  0  0  0  0
 16 17  1  0  0  0  0
 16 30  1  0  0  0  0
 17 31  1  0  0  0  0
M  END
