DB00247
 OpenBabel07062211533D

 53 56  0  0  1  0  0  0  0  0999 V2000
    2.1497    0.8946    1.3201 O   0  0  0  0  0  0  0  0  0  0  0  0
    6.0193   -1.1120   -1.2676 O   0  0  0  0  0  0  0  0  0  0  0  0
   -0.5102   -2.3386   -0.0947 N   0  0  0  0  0  0  0  0  0  0  0  0
   -5.8111    0.4682   -0.2274 N   0  0  0  0  0  0  0  0  0  0  0  0
    3.5172   -0.2557   -0.1718 N   0  0  0  0  0  0  0  0  0  0  0  0
   -1.6061   -1.3991    0.2754 C   0  0  1  0  0  0  0  0  0  0  0  0
   -1.2406    0.0944    0.0222 C   0  0  0  0  0  0  0  0  0  0  0  0
   -2.9342   -1.8391   -0.4457 C   0  0  0  0  0  0  0  0  0  0  0  0
    1.1419   -0.5219   -0.3154 C   0  0  1  0  0  0  0  0  0  0  0  0
    0.7905   -1.8412    0.3766 C   0  0  0  0  0  0  0  0  0  0  0  0
   -3.9818   -0.7909   -0.3208 C   0  0  0  0  0  0  0  0  0  0  0  0
   -2.3318    1.0911    0.1025 C   0  0  0  0  0  0  0  0  0  0  0  0
   -3.6094    0.5459   -0.0709 C   0  0  0  0  0  0  0  0  0  0  0  0
    0.0158    0.4648   -0.2813 C   0  0  0  0  0  0  0  0  0  0  0  0
   -4.7529    1.3257   -0.0178 C   0  0  0  0  0  0  0  0  0  0  0  0
   -5.3533   -0.8182   -0.4148 C   0  0  0  0  0  0  0  0  0  0  0  0
   -0.7334   -3.6884    0.4338 C   0  0  0  0  0  0  0  0  0  0  0  0
    2.3045    0.1177    0.3814 C   0  0  0  0  0  0  0  0  0  0  0  0
   -2.2505    2.4695    0.3344 C   0  0  0  0  0  0  0  0  0  0  0  0
   -4.6893    2.7010    0.2112 C   0  0  0  0  0  0  0  0  0  0  0  0
   -3.4112    3.2546    0.3859 C   0  0  0  0  0  0  0  0  0  0  0  0
    4.7889    0.2395    0.3035 C   0  0  2  0  0  0  0  0  0  0  0  0
   -7.2068    0.8489   -0.2560 C   0  0  0  0  0  0  0  0  0  0  0  0
    5.1801    1.5324   -0.4241 C   0  0  0  0  0  0  0  0  0  0  0  0
    5.8641   -0.8317    0.1191 C   0  0  0  0  0  0  0  0  0  0  0  0
    6.4786    2.1329    0.0995 C   0  0  0  0  0  0  0  0  0  0  0  0
   -1.7793   -1.4719    1.3611 H   0  0  0  0  0  0  0  0  0  0  0  0
   -3.3136   -2.7721   -0.0142 H   0  0  0  0  0  0  0  0  0  0  0  0
   -2.7411   -2.0156   -1.5118 H   0  0  0  0  0  0  0  0  0  0  0  0
    1.3901   -0.7034   -1.3694 H   0  0  0  0  0  0  0  0  0  0  0  0
    1.5802   -2.5668    0.1397 H   0  0  0  0  0  0  0  0  0  0  0  0
    0.7915   -1.7286    1.4704 H   0  0  0  0  0  0  0  0  0  0  0  0
    0.2487    1.4984   -0.5253 H   0  0  0  0  0  0  0  0  0  0  0  0
   -6.0385   -1.6344   -0.6007 H   0  0  0  0  0  0  0  0  0  0  0  0
    0.1042   -4.3466    0.1747 H   0  0  0  0  0  0  0  0  0  0  0  0
   -1.6189   -4.1523   -0.0101 H   0  0  0  0  0  0  0  0  0  0  0  0
   -0.8443   -3.6913    1.5241 H   0  0  0  0  0  0  0  0  0  0  0  0
   -1.2893    2.9528    0.4889 H   0  0  0  0  0  0  0  0  0  0  0  0
   -5.5785    3.3197    0.2547 H   0  0  0  0  0  0  0  0  0  0  0  0
   -3.3200    4.3230    0.5697 H   0  0  0  0  0  0  0  0  0  0  0  0
    3.5239   -0.8668   -0.9836 H   0  0  0  0  0  0  0  0  0  0  0  0
    4.6881    0.4502    1.3753 H   0  0  0  0  0  0  0  0  0  0  0  0
   -7.8248   -0.0339   -0.4379 H   0  0  0  0  0  0  0  0  0  0  0  0
   -7.4635    1.2883    0.7112 H   0  0  0  0  0  0  0  0  0  0  0  0
   -7.3492    1.5741   -1.0612 H   0  0  0  0  0  0  0  0  0  0  0  0
    5.2494    1.3795   -1.5077 H   0  0  0  0  0  0  0  0  0  0  0  0
    4.3811    2.2716   -0.2810 H   0  0  0  0  0  0  0  0  0  0  0  0
    6.8318   -0.5482    0.5430 H   0  0  0  0  0  0  0  0  0  0  0  0
    5.5556   -1.7630    0.6067 H   0  0  0  0  0  0  0  0  0  0  0  0
    7.3465    1.5258   -0.1728 H   0  0  0  0  0  0  0  0  0  0  0  0
    6.4539    2.2424    1.1883 H   0  0  0  0  0  0  0  0  0  0  0  0
    6.6293    3.1268   -0.3349 H   0  0  0  0  0  0  0  0  0  0  0  0
    6.5588   -0.4021   -1.6547 H   0  0  0  0  0  0  0  0  0  0  0  0
  1 18  2  0  0  0  0
  2 25  1  0  0  0  0
  2 53  1  0  0  0  0
  3  6  1  0  0  0  0
  3 10  1  0  0  0  0
  3 17  1  0  0  0  0
  4 15  1  0  0  0  0
  4 16  2  0  0  0  0
  4 23  1  0  0  0  0
  5 18  1  0  0  0  0
  5 22  1  0  0  0  0
  5 41  1  0  0  0  0
  6  7  1  0  0  0  0
  6  8  1  0  0  0  0
  6 27  1  1  0  0  0
  7 12  1  0  0  0  0
  7 14  2  0  0  0  0
  8 11  1  0  0  0  0
  8 28  1  0  0  0  0
  8 29  1  0  0  0  0
  9 10  1  0  0  0  0
  9 14  1  0  0  0  0
  9 18  1  0  0  0  0
  9 30  1  6  0  0  0
 10 31  1  0  0  0  0
 10 32  1  0  0  0  0
 11 13  2  0  0  0  0
 11 16  1  0  0  0  0
 12 13  1  0  0  0  0
 12 19  2  0  0  0  0
 13 15  2  0  0  0  0
 14 33  1  0  0  0  0
 15 20  1  0  0  0  0
 16 34  1  0  0  0  0
 17 35  1  0  0  0  0
 17 36  1  0  0  0  0
 17 37  1  0  0  0  0
 19 21  1  0  0  0  0
 19 38  1  0  0  0  0
 20 21  2  0  0  0  0
 20 39  1  0  0  0  0
 21 40  1  0  0  0  0
 22 24  1  0  0  0  0
 22 25  1  0  0  0  0
 22 42  1  1  0  0  0
 23 43  1  0  0  0  0
 23 44  1  0  0  0  0
 23 45  1  0  0  0  0
 24 26  1  0  0  0  0
 24 46  1  0  0  0  0
 24 47  1  0  0  0  0
 25 48  1  0  0  0  0
 25 49  1  0  0  0  0
 26 50  1  0  0  0  0
 26 51  1  0  0  0  0
 26 52  1  0  0  0  0
M  END
