DB00114
 OpenBabel07062211533D

 26 26  0  0  0  0  0  0  0  0999 V2000
   -3.7154    0.2418   -0.7728 P   0  0  0  0  0  0  0  0  0  0  0  0
   -2.1008    0.3066   -0.7434 O   0  0  0  0  0  0  0  0  0  0  0  0
    2.9715   -1.7701   -0.1921 O   0  0  0  0  0  0  0  0  0  0  0  0
   -4.1670    1.4281    0.2294 O   0  0  0  0  0  0  0  0  0  0  0  0
   -4.0337   -1.0999    0.0718 O   0  0  0  0  0  0  0  0  0  0  0  0
    0.7860   -3.1307    0.5712 O   0  0  0  0  0  0  0  0  0  0  0  0
   -4.3292    0.2898   -2.1415 O   0  0  0  0  0  0  0  0  0  0  0  0
    1.9929    1.7301    0.1103 N   0  0  0  0  0  0  0  0  0  0  0  0
    0.0278    0.3372    0.3172 C   0  0  0  0  0  0  0  0  0  0  0  0
    0.8089   -0.8017    0.1551 C   0  0  0  0  0  0  0  0  0  0  0  0
   -1.4467    0.2660    0.5195 C   0  0  0  0  0  0  0  0  0  0  0  0
    2.1813   -0.6761   -0.0295 C   0  0  0  0  0  0  0  0  0  0  0  0
    2.7196    0.6005   -0.0439 C   0  0  0  0  0  0  0  0  0  0  0  0
    0.6625    1.5686    0.2873 C   0  0  0  0  0  0  0  0  0  0  0  0
    4.1877    0.7925   -0.2400 C   0  0  0  0  0  0  0  0  0  0  0  0
    0.1942   -2.1242    0.1785 C   0  0  0  0  0  0  0  0  0  0  0  0
   -1.7444   -0.6223    1.0852 H   0  0  0  0  0  0  0  0  0  0  0  0
   -1.7751    1.1259    1.1156 H   0  0  0  0  0  0  0  0  0  0  0  0
    0.1084    2.4948    0.4057 H   0  0  0  0  0  0  0  0  0  0  0  0
    4.5060    0.3937   -1.2086 H   0  0  0  0  0  0  0  0  0  0  0  0
    4.4444    1.8576   -0.2253 H   0  0  0  0  0  0  0  0  0  0  0  0
    4.7536    0.3096    0.5632 H   0  0  0  0  0  0  0  0  0  0  0  0
   -0.8518   -2.2053   -0.1582 H   0  0  0  0  0  0  0  0  0  0  0  0
    3.9013   -1.5209   -0.3087 H   0  0  0  0  0  0  0  0  0  0  0  0
   -5.1223    1.6272    0.3289 H   0  0  0  0  0  0  0  0  0  0  0  0
   -4.9598   -1.4186    0.1253 H   0  0  0  0  0  0  0  0  0  0  0  0
  1  2  1  0  0  0  0
  1  4  1  0  0  0  0
  1  5  1  0  0  0  0
  1  7  2  0  0  0  0
  2 11  1  0  0  0  0
  3 12  1  0  0  0  0
  3 24  1  0  0  0  0
  4 25  1  0  0  0  0
  5 26  1  0  0  0  0
  6 16  2  0  0  0  0
  8 13  2  0  0  0  0
  8 14  1  0  0  0  0
  9 10  1  0  0  0  0
  9 11  1  0  0  0  0
  9 14  2  0  0  0  0
 10 12  2  0  0  0  0
 10 16  1  0  0  0  0
 11 17  1  0  0  0  0
 11 18  1  0  0  0  0
 12 13  1  0  0  0  0
 13 15  1  0  0  0  0
 14 19  1  0  0  0  0
 15 20  1  0  0  0  0
 15 21  1  0  0  0  0
 15 22  1  0  0  0  0
 16 23  1  0  0  0  0
M  END
