DB00828
 OpenBabel07062211533D

 15 15  0  0  1  0  0  0  0  0999 V2000
   -1.2945    0.0372    0.2769 P   0  0  0  0  0  0  0  0  0  0  0  0
    0.7060   -0.8965   -1.3948 O   0  0  0  0  0  0  0  0  0  0  0  0
   -2.6946   -0.7121    0.0104 O   0  0  0  0  0  0  0  0  0  0  0  0
   -1.1934    1.1819   -0.8512 O   0  0  0  0  0  0  0  0  0  0  0  0
   -0.9726    0.4235    1.6862 O   0  0  0  0  0  0  0  0  0  0  0  0
   -0.0302   -1.1791   -0.1939 C   0  0  1  0  0  0  0  0  0  0  0  0
    1.4038   -0.7258   -0.1543 C   0  0  2  0  0  0  0  0  0  0  0  0
    1.7603    0.6751    0.1664 C   0  0  0  0  0  0  0  0  0  0  0  0
   -0.2305   -2.2146    0.0501 H   0  0  0  0  0  0  0  0  0  0  0  0
    2.1637   -1.4445    0.1186 H   0  0  0  0  0  0  0  0  0  0  0  0
    2.8172    0.8424   -0.0682 H   0  0  0  0  0  0  0  0  0  0  0  0
    1.1937    1.4151   -0.4029 H   0  0  0  0  0  0  0  0  0  0  0  0
    1.6315    0.8733    1.2343 H   0  0  0  0  0  0  0  0  0  0  0  0
   -3.5300   -0.2728    0.2772 H   0  0  0  0  0  0  0  0  0  0  0  0
   -1.7305    1.9969   -0.7547 H   0  0  0  0  0  0  0  0  0  0  0  0
  1  3  1  0  0  0  0
  1  4  1  0  0  0  0
  1  5  2  0  0  0  0
  1  6  1  0  0  0  0
  2  6  1  0  0  0  0
  2  7  1  0  0  0  0
  3 14  1  0  0  0  0
  4 15  1  0  0  0  0
  6  7  1  1  0  0  0
  6  9  1  0  0  0  0
  7  8  1  0  0  0  0
  7 10  1  1  0  0  0
  8 11  1  0  0  0  0
  8 12  1  0  0  0  0
  8 13  1  0  0  0  0
M  END
