DB00401
 OpenBabel07062211533D

 52 53  0  0  1  0  0  0  0  0999 V2000
    1.8981    0.5440    0.4862 O   0  0  0  0  0  0  0  0  0  0  0  0
   -4.2936   -0.6745    1.2860 O   0  0  0  0  0  0  0  0  0  0  0  0
    1.0541    1.0036    2.5923 O   0  0  0  0  0  0  0  0  0  0  0  0
   -3.9142   -1.5421   -0.8265 O   0  0  0  0  0  0  0  0  0  0  0  0
    1.2910   -3.0293    2.0242 O   0  0  0  0  0  0  0  0  0  0  0  0
    0.0130   -1.2727    2.3415 O   0  0  0  0  0  0  0  0  0  0  0  0
   -1.9097    2.4875   -0.4147 N   0  0  0  0  0  0  0  0  0  0  0  0
    0.5196   -2.1405    1.5918 N   0  0  0  0  0  0  0  0  0  0  0  0
   -1.2611   -0.0980    0.5456 C   0  0  1  0  0  0  0  0  0  0  0  0
   -0.3189    1.1056    0.6633 C   0  0  0  0  0  0  0  0  0  0  0  0
   -2.6450    0.2780    0.0067 C   0  0  0  0  0  0  0  0  0  0  0  0
   -0.6403   -1.1504   -0.3275 C   0  0  0  0  0  0  0  0  0  0  0  0
   -0.6677    2.3184    0.1768 C   0  0  0  0  0  0  0  0  0  0  0  0
   -2.8990    1.5189   -0.4668 C   0  0  0  0  0  0  0  0  0  0  0  0
    0.9443    0.8851    1.3860 C   0  0  0  0  0  0  0  0  0  0  0  0
    0.2088   -2.1159    0.2041 C   0  0  0  0  0  0  0  0  0  0  0  0
   -0.9326   -1.1391   -1.6880 C   0  0  0  0  0  0  0  0  0  0  0  0
    0.1951    3.5512    0.2066 C   0  0  0  0  0  0  0  0  0  0  0  0
   -3.6847   -0.7615    0.0788 C   0  0  0  0  0  0  0  0  0  0  0  0
   -4.2031    1.9755   -1.0629 C   0  0  0  0  0  0  0  0  0  0  0  0
    4.1749   -0.0790   -0.0741 C   0  0  0  0  0  0  0  0  0  0  0  0
    3.1939    0.2947    1.0406 C   0  0  0  0  0  0  0  0  0  0  0  0
    0.7711   -3.0799   -0.6328 C   0  0  0  0  0  0  0  0  0  0  0  0
   -0.3701   -2.1031   -2.5250 C   0  0  0  0  0  0  0  0  0  0  0  0
    0.4817   -3.0733   -1.9973 C   0  0  0  0  0  0  0  0  0  0  0  0
    5.5374   -0.4390    0.5140 C   0  0  0  0  0  0  0  0  0  0  0  0
    4.3181    1.0533   -1.0932 C   0  0  0  0  0  0  0  0  0  0  0  0
   -5.3371   -1.6285    1.5096 C   0  0  0  0  0  0  0  0  0  0  0  0
   -1.5747   -0.4276    1.5363 H   0  0  0  0  0  0  0  0  0  0  0  0
   -2.1351    3.4075   -0.7762 H   0  0  0  0  0  0  0  0  0  0  0  0
   -1.5580   -0.3865   -2.1571 H   0  0  0  0  0  0  0  0  0  0  0  0
   -0.3001    4.3451    0.7761 H   0  0  0  0  0  0  0  0  0  0  0  0
    1.1727    3.3770    0.6649 H   0  0  0  0  0  0  0  0  0  0  0  0
    0.3701    3.9143   -0.8119 H   0  0  0  0  0  0  0  0  0  0  0  0
   -4.6208    2.7983   -0.4730 H   0  0  0  0  0  0  0  0  0  0  0  0
   -4.0462    2.3296   -2.0875 H   0  0  0  0  0  0  0  0  0  0  0  0
   -4.9550    1.1823   -1.1022 H   0  0  0  0  0  0  0  0  0  0  0  0
    3.7786   -0.9523   -0.6078 H   0  0  0  0  0  0  0  0  0  0  0  0
    3.5400    1.1939    1.5653 H   0  0  0  0  0  0  0  0  0  0  0  0
    3.1222   -0.5276    1.7623 H   0  0  0  0  0  0  0  0  0  0  0  0
    1.4405   -3.8513   -0.2607 H   0  0  0  0  0  0  0  0  0  0  0  0
   -0.5882   -2.0935   -3.5888 H   0  0  0  0  0  0  0  0  0  0  0  0
    0.9213   -3.8221   -2.6499 H   0  0  0  0  0  0  0  0  0  0  0  0
    6.2354   -0.7375   -0.2754 H   0  0  0  0  0  0  0  0  0  0  0  0
    5.4493   -1.2758    1.2150 H   0  0  0  0  0  0  0  0  0  0  0  0
    5.9760    0.4088    1.0513 H   0  0  0  0  0  0  0  0  0  0  0  0
    5.0227    0.7759   -1.8844 H   0  0  0  0  0  0  0  0  0  0  0  0
    4.6854    1.9698   -0.6189 H   0  0  0  0  0  0  0  0  0  0  0  0
    3.3588    1.2797   -1.5701 H   0  0  0  0  0  0  0  0  0  0  0  0
   -6.1371   -1.4936    0.7755 H   0  0  0  0  0  0  0  0  0  0  0  0
   -4.9365   -2.6457    1.4628 H   0  0  0  0  0  0  0  0  0  0  0  0
   -5.7453   -1.4575    2.5092 H   0  0  0  0  0  0  0  0  0  0  0  0
  1 15  1  0  0  0  0
  1 22  1  0  0  0  0
  2 19  1  0  0  0  0
  2 28  1  0  0  0  0
  3 15  2  0  0  0  0
  4 19  2  0  0  0  0
  5  8  1  0  0  0  0
  6  8  2  0  0  0  0
  7 13  1  0  0  0  0
  7 14  1  0  0  0  0
  7 30  1  0  0  0  0
  8 16  1  0  0  0  0
  9 10  1  0  0  0  0
  9 11  1  0  0  0  0
  9 12  1  0  0  0  0
  9 29  1  1  0  0  0
 10 13  2  0  0  0  0
 10 15  1  0  0  0  0
 11 14  2  0  0  0  0
 11 19  1  0  0  0  0
 12 16  2  0  0  0  0
 12 17  1  0  0  0  0
 13 18  1  0  0  0  0
 14 20  1  0  0  0  0
 16 23  1  0  0  0  0
 17 24  2  0  0  0  0
 17 31  1  0  0  0  0
 18 32  1  0  0  0  0
 18 33  1  0  0  0  0
 18 34  1  0  0  0  0
 20 35  1  0  0  0  0
 20 36  1  0  0  0  0
 20 37  1  0  0  0  0
 21 22  1  0  0  0  0
 21 26  1  0  0  0  0
 21 27  1  0  0  0  0
 21 38  1  0  0  0  0
 22 39  1  0  0  0  0
 22 40  1  0  0  0  0
 23 25  2  0  0  0  0
 23 41  1  0  0  0  0
 24 25  1  0  0  0  0
 24 42  1  0  0  0  0
 25 43  1  0  0  0  0
 26 44  1  0  0  0  0
 26 45  1  0  0  0  0
 26 46  1  0  0  0  0
 27 47  1  0  0  0  0
 27 48  1  0  0  0  0
 27 49  1  0  0  0  0
 28 50  1  0  0  0  0
 28 51  1  0  0  0  0
 28 52  1  0  0  0  0
M  END
