DB00374
 OpenBabel07062211533D

 62 64  0  0  1  0  0  0  0  0999 V2000
   -0.8186    0.4959    1.5866 O   0  0  0  0  0  0  0  0  0  0  0  0
    5.0681    1.5206   -0.4974 O   0  0  0  0  0  0  0  0  0  0  0  0
   -1.9189   -2.4715   -1.7258 O   0  0  0  0  0  0  0  0  0  0  0  0
    4.4981    5.0121    0.0940 O   0  0  0  0  0  0  0  0  0  0  0  0
    5.4743    3.4267    1.4061 O   0  0  0  0  0  0  0  0  0  0  0  0
    1.8074   -2.0520    1.2283 C   0  0  1  0  0  0  0  0  0  0  0  0
    2.5705   -0.8799    1.9067 C   0  0  2  0  0  0  0  0  0  0  0  0
    0.4006   -1.4928    0.9140 C   0  0  2  0  0  0  0  0  0  0  0  0
    0.2087   -0.4007    1.9634 C   0  0  1  0  0  0  0  0  0  0  0  0
    1.5668    0.2816    1.9699 C   0  0  0  0  0  0  0  0  0  0  0  0
    2.5051   -2.6393   -0.0070 C   0  0  0  0  0  0  0  0  0  0  0  0
    3.8886   -0.4805    1.2331 C   0  0  0  0  0  0  0  0  0  0  0  0
   -0.6959   -2.5503    0.9625 C   0  0  0  0  0  0  0  0  0  0  0  0
    3.1006   -1.5670   -0.8808 C   0  0  0  0  0  0  0  0  0  0  0  0
    3.7824   -0.5012   -0.2686 C   0  0  0  0  0  0  0  0  0  0  0  0
   -2.0873   -1.9956    0.6414 C   0  0  0  0  0  0  0  0  0  0  0  0
    4.3848    0.4833   -1.0577 C   0  0  0  0  0  0  0  0  0  0  0  0
   -2.2388   -1.4461   -0.7842 C   0  0  2  0  0  0  0  0  0  0  0  0
    3.0282   -1.6365   -2.2754 C   0  0  0  0  0  0  0  0  0  0  0  0
   -3.6567   -0.9466   -1.0943 C   0  0  0  0  0  0  0  0  0  0  0  0
    4.2969    0.4141   -2.4481 C   0  0  0  0  0  0  0  0  0  0  0  0
    3.6203   -0.6432   -3.0555 C   0  0  0  0  0  0  0  0  0  0  0  0
   -4.0920    0.2398   -0.2332 C   0  0  0  0  0  0  0  0  0  0  0  0
   -5.4779    0.7431   -0.6440 C   0  0  0  0  0  0  0  0  0  0  0  0
    4.5957    2.8359   -0.7809 C   0  0  0  0  0  0  0  0  0  0  0  0
   -5.8997    1.9529    0.1896 C   0  0  0  0  0  0  0  0  0  0  0  0
    4.9171    3.7508    0.3681 C   0  0  0  0  0  0  0  0  0  0  0  0
   -7.2898    2.4355   -0.1930 C   0  0  0  0  0  0  0  0  0  0  0  0
    1.7033   -2.8604    1.9658 H   0  0  0  0  0  0  0  0  0  0  0  0
    2.7980   -1.1723    2.9412 H   0  0  0  0  0  0  0  0  0  0  0  0
    0.4100   -1.0349   -0.0829 H   0  0  0  0  0  0  0  0  0  0  0  0
   -0.0252   -0.8231    2.9481 H   0  0  0  0  0  0  0  0  0  0  0  0
    1.6609    0.9557    1.1092 H   0  0  0  0  0  0  0  0  0  0  0  0
    1.7065    0.8960    2.8658 H   0  0  0  0  0  0  0  0  0  0  0  0
    3.3220   -3.2982    0.3142 H   0  0  0  0  0  0  0  0  0  0  0  0
    1.8046   -3.2604   -0.5771 H   0  0  0  0  0  0  0  0  0  0  0  0
    4.2012    0.5014    1.6059 H   0  0  0  0  0  0  0  0  0  0  0  0
    4.6744   -1.1915    1.5193 H   0  0  0  0  0  0  0  0  0  0  0  0
   -0.4580   -3.3632    0.2664 H   0  0  0  0  0  0  0  0  0  0  0  0
   -0.7283   -3.0059    1.9606 H   0  0  0  0  0  0  0  0  0  0  0  0
   -2.7865   -2.8362    0.7512 H   0  0  0  0  0  0  0  0  0  0  0  0
   -2.3904   -1.2660    1.3949 H   0  0  0  0  0  0  0  0  0  0  0  0
   -0.8283    1.2182    2.2374 H   0  0  0  0  0  0  0  0  0  0  0  0
   -1.5381   -0.6215   -0.9491 H   0  0  0  0  0  0  0  0  0  0  0  0
    2.5136   -2.4609   -2.7614 H   0  0  0  0  0  0  0  0  0  0  0  0
   -3.7078   -0.6650   -2.1544 H   0  0  0  0  0  0  0  0  0  0  0  0
   -4.3683   -1.7744   -0.9785 H   0  0  0  0  0  0  0  0  0  0  0  0
    4.7646    1.1690   -3.0744 H   0  0  0  0  0  0  0  0  0  0  0  0
    3.5612   -0.6980   -4.1387 H   0  0  0  0  0  0  0  0  0  0  0  0
   -4.1218   -0.0459    0.8235 H   0  0  0  0  0  0  0  0  0  0  0  0
   -3.3612    1.0514   -0.3321 H   0  0  0  0  0  0  0  0  0  0  0  0
   -1.9621   -2.0793   -2.6145 H   0  0  0  0  0  0  0  0  0  0  0  0
   -5.4716    1.0159   -1.7063 H   0  0  0  0  0  0  0  0  0  0  0  0
   -6.2110   -0.0635   -0.5217 H   0  0  0  0  0  0  0  0  0  0  0  0
    5.1022    3.2071   -1.6776 H   0  0  0  0  0  0  0  0  0  0  0  0
    3.5080    2.8373   -0.9216 H   0  0  0  0  0  0  0  0  0  0  0  0
   -5.8914    1.6929    1.2545 H   0  0  0  0  0  0  0  0  0  0  0  0
   -5.1828    2.7702    0.0493 H   0  0  0  0  0  0  0  0  0  0  0  0
   -8.0359    1.6507   -0.0317 H   0  0  0  0  0  0  0  0  0  0  0  0
   -7.5710    3.3015    0.4144 H   0  0  0  0  0  0  0  0  0  0  0  0
   -7.3256    2.7328   -1.2460 H   0  0  0  0  0  0  0  0  0  0  0  0
    4.6960    5.6312    0.8287 H   0  0  0  0  0  0  0  0  0  0  0  0
  1  9  1  0  0  0  0
  1 43  1  0  0  0  0
  2 17  1  0  0  0  0
  2 25  1  0  0  0  0
  3 18  1  0  0  0  0
  3 52  1  0  0  0  0
  4 27  1  0  0  0  0
  4 62  1  0  0  0  0
  5 27  2  0  0  0  0
  6  7  1  1  0  0  0
  6 11  1  0  0  0  0
  6 29  1  0  0  0  0
  7 10  1  0  0  0  0
  7 12  1  0  0  0  0
  7 30  1  1  0  0  0
  8  6  1  1  0  0  0
  8 13  1  0  0  0  0
  8 31  1  0  0  0  0
  9  8  1  6  0  0  0
  9 10  1  0  0  0  0
  9 32  1  0  0  0  0
 10 33  1  0  0  0  0
 10 34  1  0  0  0  0
 11 14  1  0  0  0  0
 11 35  1  0  0  0  0
 11 36  1  0  0  0  0
 12 15  1  0  0  0  0
 12 37  1  0  0  0  0
 12 38  1  0  0  0  0
 13 16  1  0  0  0  0
 13 39  1  0  0  0  0
 13 40  1  0  0  0  0
 14 15  2  0  0  0  0
 14 19  1  0  0  0  0
 15 17  1  0  0  0  0
 16 18  1  0  0  0  0
 16 41  1  0  0  0  0
 16 42  1  0  0  0  0
 17 21  2  0  0  0  0
 18 20  1  0  0  0  0
 18 44  1  6  0  0  0
 19 22  2  0  0  0  0
 19 45  1  0  0  0  0
 20 23  1  0  0  0  0
 20 46  1  0  0  0  0
 20 47  1  0  0  0  0
 21 22  1  0  0  0  0
 21 48  1  0  0  0  0
 22 49  1  0  0  0  0
 23 24  1  0  0  0  0
 23 50  1  0  0  0  0
 23 51  1  0  0  0  0
 24 26  1  0  0  0  0
 24 53  1  0  0  0  0
 24 54  1  0  0  0  0
 25 27  1  0  0  0  0
 25 55  1  0  0  0  0
 25 56  1  0  0  0  0
 26 28  1  0  0  0  0
 26 57  1  0  0  0  0
 26 58  1  0  0  0  0
 28 59  1  0  0  0  0
 28 60  1  0  0  0  0
 28 61  1  0  0  0  0
M  END
