DB00953
 OpenBabel07062211533D

 39 41  0  0  0  0  0  0  0  0999 V2000
   -0.0627    3.6071   -0.6304 N   0  0  0  0  0  0  0  0  0  0  0  0
    3.7934   -0.7627   -0.0450 N   0  0  0  0  0  0  0  0  0  0  0  0
   -3.4557   -1.6485    0.1649 N   0  0  0  0  0  0  0  0  0  0  0  0
   -4.5478   -1.5596   -0.5866 N   0  0  0  0  0  0  0  0  0  0  0  0
   -3.2368   -3.3463   -1.1542 N   0  0  0  0  0  0  0  0  0  0  0  0
    1.0854    1.8927    0.1879 C   0  0  0  0  0  0  0  0  0  0  0  0
   -0.3008    1.5863    0.2841 C   0  0  0  0  0  0  0  0  0  0  0  0
    2.2078    1.0329    0.6154 C   0  0  0  0  0  0  0  0  0  0  0  0
   -0.9991    2.6782   -0.2360 C   0  0  0  0  0  0  0  0  0  0  0  0
    2.7048    0.0954   -0.5002 C   0  0  0  0  0  0  0  0  0  0  0  0
   -1.0309    0.4812    0.7652 C   0  0  0  0  0  0  0  0  0  0  0  0
    1.1999    3.1416   -0.3780 C   0  0  0  0  0  0  0  0  0  0  0  0
   -2.4291    0.5096    0.7084 C   0  0  0  0  0  0  0  0  0  0  0  0
   -2.3964    2.7205   -0.2992 C   0  0  0  0  0  0  0  0  0  0  0  0
   -3.0992    1.6130    0.1839 C   0  0  0  0  0  0  0  0  0  0  0  0
   -3.2092   -0.6574    1.2167 C   0  0  0  0  0  0  0  0  0  0  0  0
    4.2125   -1.6721   -1.1126 C   0  0  0  0  0  0  0  0  0  0  0  0
    3.3897   -1.5216    1.1396 C   0  0  0  0  0  0  0  0  0  0  0  0
   -2.6775   -2.6959   -0.1603 C   0  0  0  0  0  0  0  0  0  0  0  0
   -4.3707   -2.6193   -1.3787 C   0  0  0  0  0  0  0  0  0  0  0  0
    3.0405    1.6597    0.9615 H   0  0  0  0  0  0  0  0  0  0  0  0
    1.8637    0.4720    1.4909 H   0  0  0  0  0  0  0  0  0  0  0  0
    3.0511    0.7074   -1.3435 H   0  0  0  0  0  0  0  0  0  0  0  0
    1.8629   -0.5050   -0.8724 H   0  0  0  0  0  0  0  0  0  0  0  0
   -0.5114   -0.3818    1.1729 H   0  0  0  0  0  0  0  0  0  0  0  0
    2.0648    3.7414   -0.6250 H   0  0  0  0  0  0  0  0  0  0  0  0
   -0.2772    4.5030   -1.0459 H   0  0  0  0  0  0  0  0  0  0  0  0
   -2.9189    3.5790   -0.7075 H   0  0  0  0  0  0  0  0  0  0  0  0
   -4.1862    1.6271    0.1427 H   0  0  0  0  0  0  0  0  0  0  0  0
   -2.6802   -1.1708    2.0289 H   0  0  0  0  0  0  0  0  0  0  0  0
   -4.1835   -0.3518    1.6175 H   0  0  0  0  0  0  0  0  0  0  0  0
    5.0722   -2.2717   -0.7930 H   0  0  0  0  0  0  0  0  0  0  0  0
    3.4092   -2.3535   -1.4154 H   0  0  0  0  0  0  0  0  0  0  0  0
    4.5366   -1.1073   -1.9940 H   0  0  0  0  0  0  0  0  0  0  0  0
    3.3466   -0.8897    2.0320 H   0  0  0  0  0  0  0  0  0  0  0  0
    2.4288   -2.0321    1.0052 H   0  0  0  0  0  0  0  0  0  0  0  0
    4.1397   -2.2865    1.3762 H   0  0  0  0  0  0  0  0  0  0  0  0
   -1.7458   -2.9450    0.3280 H   0  0  0  0  0  0  0  0  0  0  0  0
   -5.0903   -2.8692   -2.1439 H   0  0  0  0  0  0  0  0  0  0  0  0
  1  9  1  0  0  0  0
  1 12  1  0  0  0  0
  1 27  1  0  0  0  0
  2 10  1  0  0  0  0
  2 17  1  0  0  0  0
  2 18  1  0  0  0  0
  3  4  1  0  0  0  0
  3 16  1  0  0  0  0
  3 19  2  0  0  0  0
  4 20  1  0  0  0  0
  5 19  1  0  0  0  0
  5 20  2  0  0  0  0
  6  7  1  0  0  0  0
  6  8  1  0  0  0  0
  6 12  2  0  0  0  0
  7  9  2  0  0  0  0
  7 11  1  0  0  0  0
  8 10  1  0  0  0  0
  8 21  1  0  0  0  0
  8 22  1  0  0  0  0
  9 14  1  0  0  0  0
 10 23  1  0  0  0  0
 10 24  1  0  0  0  0
 11 13  2  0  0  0  0
 11 25  1  0  0  0  0
 12 26  1  0  0  0  0
 13 15  1  0  0  0  0
 13 16  1  0  0  0  0
 14 15  2  0  0  0  0
 14 28  1  0  0  0  0
 15 29  1  0  0  0  0
 16 30  1  0  0  0  0
 16 31  1  0  0  0  0
 17 32  1  0  0  0  0
 17 33  1  0  0  0  0
 17 34  1  0  0  0  0
 18 35  1  0  0  0  0
 18 36  1  0  0  0  0
 18 37  1  0  0  0  0
 19 38  1  0  0  0  0
 20 39  1  0  0  0  0
M  END
