DB00651
 OpenBabel07062211533D

 32 33  0  0  1  0  0  0  0  0999 V2000
    2.9460    1.3510    0.9870 O   0  0  0  0  0  0  0  0  0  0  0  0
    0.0558   -2.0504   -0.5481 O   0  0  0  0  0  0  0  0  0  0  0  0
    4.8475   -0.6730    1.1826 O   0  0  0  0  0  0  0  0  0  0  0  0
   -4.3671   -0.8474    0.4542 O   0  0  0  0  0  0  0  0  0  0  0  0
    0.6055    0.8890   -0.6284 N   0  0  0  0  0  0  0  0  0  0  0  0
   -2.8135    0.8545    0.1320 N   0  0  0  0  0  0  0  0  0  0  0  0
   -2.1655   -1.4725   -0.0448 N   0  0  0  0  0  0  0  0  0  0  0  0
   -0.9629    2.4294   -0.2582 N   0  0  0  0  0  0  0  0  0  0  0  0
   -0.5501    0.2056   -0.3802 C   0  0  0  0  0  0  0  0  0  0  0  0
    1.9059    0.3379   -0.9262 C   0  0  0  0  0  0  0  0  0  0  0  0
   -1.4932    1.1713   -0.1572 C   0  0  0  0  0  0  0  0  0  0  0  0
    2.7391    0.0969    0.3341 C   0  0  1  0  0  0  0  0  0  0  0  0
   -0.8044   -1.1982   -0.3434 C   0  0  0  0  0  0  0  0  0  0  0  0
    0.3064    2.2244   -0.5437 C   0  0  0  0  0  0  0  0  0  0  0  0
   -3.2063   -0.5055    0.2008 C   0  0  0  0  0  0  0  0  0  0  0  0
    4.1007   -0.4953   -0.0161 C   0  0  0  0  0  0  0  0  0  0  0  0
   -3.7888    1.9129    0.3631 C   0  0  0  0  0  0  0  0  0  0  0  0
   -2.5504   -2.8787    0.0204 C   0  0  0  0  0  0  0  0  0  0  0  0
    1.7753   -0.5786   -1.5090 H   0  0  0  0  0  0  0  0  0  0  0  0
    2.4082    1.0634   -1.5791 H   0  0  0  0  0  0  0  0  0  0  0  0
    2.2091   -0.5511    1.0417 H   0  0  0  0  0  0  0  0  0  0  0  0
    1.0474    2.9967   -0.6992 H   0  0  0  0  0  0  0  0  0  0  0  0
    4.6689    0.1833   -0.6611 H   0  0  0  0  0  0  0  0  0  0  0  0
    3.9935   -1.4650   -0.5116 H   0  0  0  0  0  0  0  0  0  0  0  0
   -4.7808    1.5080    0.5779 H   0  0  0  0  0  0  0  0  0  0  0  0
   -3.8500    2.5406   -0.5314 H   0  0  0  0  0  0  0  0  0  0  0  0
   -3.4619    2.5167    1.2152 H   0  0  0  0  0  0  0  0  0  0  0  0
   -1.7160   -3.5565   -0.1731 H   0  0  0  0  0  0  0  0  0  0  0  0
   -3.3401   -3.0587   -0.7159 H   0  0  0  0  0  0  0  0  0  0  0  0
   -2.9584   -3.0832    1.0153 H   0  0  0  0  0  0  0  0  0  0  0  0
    3.4928    1.1825    1.7733 H   0  0  0  0  0  0  0  0  0  0  0  0
    5.7073   -1.0498    0.9290 H   0  0  0  0  0  0  0  0  0  0  0  0
  1 12  1  0  0  0  0
  1 31  1  0  0  0  0
  2 13  2  0  0  0  0
  3 16  1  0  0  0  0
  3 32  1  0  0  0  0
  4 15  2  0  0  0  0
  5  9  2  0  0  0  0
  5 10  1  0  0  0  0
  5 14  1  0  0  0  0
  6 11  2  0  0  0  0
  6 15  1  0  0  0  0
  6 17  1  0  0  0  0
  7 13  1  0  0  0  0
  7 15  1  0  0  0  0
  7 18  1  0  0  0  0
  8 11  1  0  0  0  0
  8 14  2  0  0  0  0
  9 11  1  0  0  0  0
  9 13  1  0  0  0  0
 10 12  1  0  0  0  0
 10 19  1  0  0  0  0
 10 20  1  0  0  0  0
 12 16  1  0  0  0  0
 12 21  1  1  0  0  0
 14 22  1  0  0  0  0
 16 23  1  0  0  0  0
 16 24  1  0  0  0  0
 17 25  1  0  0  0  0
 17 26  1  0  0  0  0
 17 27  1  0  0  0  0
 18 28  1  0  0  0  0
 18 29  1  0  0  0  0
 18 30  1  0  0  0  0
M  END
