DB00923
 OpenBabel07062211533D

 56 59  0  0  1  0  0  0  0  0999 V2000
   -0.2845   -2.3944    2.0144 S   0  0  0  0  0  0  0  0  0  0  0  0
   -4.1029    0.0639    0.4467 S   0  0  0  0  0  0  0  0  0  0  0  0
    1.2339   -1.9585   -2.3579 O   0  0  0  0  0  0  0  0  0  0  0  0
   -2.4594   -2.4875   -2.8702 O   0  0  0  0  0  0  0  0  0  0  0  0
    4.0618   -1.8437   -0.9907 O   0  0  0  0  0  0  0  0  0  0  0  0
   -1.8087   -0.3404   -2.4267 O   0  0  0  0  0  0  0  0  0  0  0  0
   -5.1290    4.7256   -0.1506 O   0  0  0  0  0  0  0  0  0  0  0  0
   -5.6906    3.1195   -1.6614 O   0  0  0  0  0  0  0  0  0  0  0  0
   -0.2967   -2.4727   -0.6394 N   0  0  0  0  0  0  0  0  0  0  0  0
    2.4500   -2.0559    0.6652 N   0  0  0  0  0  0  0  0  0  0  0  0
   -6.4704    1.4059    0.4097 N   0  0  0  0  0  0  0  0  0  0  0  0
   -6.6754   -0.7093   -0.0220 N   0  0  0  0  0  0  0  0  0  0  0  0
    2.9882    2.6375    1.5512 N   0  0  0  0  0  0  0  0  0  0  0  0
   -7.7813    1.2127    0.2084 N   0  0  0  0  0  0  0  0  0  0  0  0
   -7.9007   -0.0827   -0.0556 N   0  0  0  0  0  0  0  0  0  0  0  0
    0.1659   -3.2567    0.4913 C   0  0  1  0  0  0  0  0  0  0  0  0
    1.5934   -3.0069   -0.0425 C   0  0  1  0  0  0  0  0  0  0  0  0
    0.8861   -2.3994   -1.2875 C   0  0  0  0  0  0  0  0  0  0  0  0
   -1.5781   -2.0495   -0.7907 C   0  0  0  0  0  0  0  0  0  0  0  0
   -2.4572   -2.0740    0.2392 C   0  0  0  0  0  0  0  0  0  0  0  0
   -2.0733   -2.4738    1.6622 C   0  0  0  0  0  0  0  0  0  0  0  0
   -3.9156   -1.6984    0.1303 C   0  0  0  0  0  0  0  0  0  0  0  0
    3.6301   -1.5480    0.1206 C   0  0  0  0  0  0  0  0  0  0  0  0
   -1.9493   -1.5030   -2.1045 C   0  0  0  0  0  0  0  0  0  0  0  0
    4.3250   -0.5851    1.0636 C   0  0  0  0  0  0  0  0  0  0  0  0
    5.1565    0.4497    0.3530 C   0  0  0  0  0  0  0  0  0  0  0  0
    4.5989    1.6636   -0.0260 C   0  0  0  0  0  0  0  0  0  0  0  0
    6.4892    0.1633    0.0867 C   0  0  0  0  0  0  0  0  0  0  0  0
   -5.8539    0.2351    0.2620 C   0  0  0  0  0  0  0  0  0  0  0  0
    3.1675    1.9838    0.2546 C   0  0  0  0  0  0  0  0  0  0  0  0
    5.3877    2.6079   -0.6831 C   0  0  0  0  0  0  0  0  0  0  0  0
    7.2780    1.1076   -0.5705 C   0  0  0  0  0  0  0  0  0  0  0  0
    6.7272    2.3300   -0.9554 C   0  0  0  0  0  0  0  0  0  0  0  0
   -5.9678    2.7191    0.7258 C   0  0  0  0  0  0  0  0  0  0  0  0
   -5.5976    3.5013   -0.5044 C   0  0  0  0  0  0  0  0  0  0  0  0
   -0.1499   -4.3054    0.4412 H   0  0  0  0  0  0  0  0  0  0  0  0
    2.1334   -3.9336   -0.2703 H   0  0  0  0  0  0  0  0  0  0  0  0
   -2.4278   -3.4914    1.8600 H   0  0  0  0  0  0  0  0  0  0  0  0
   -2.5536   -1.8088    2.3871 H   0  0  0  0  0  0  0  0  0  0  0  0
    2.1888   -1.7541    1.6009 H   0  0  0  0  0  0  0  0  0  0  0  0
   -4.3028   -1.9330   -0.8671 H   0  0  0  0  0  0  0  0  0  0  0  0
   -4.5126   -2.2819    0.8408 H   0  0  0  0  0  0  0  0  0  0  0  0
    3.6124   -0.1204    1.7532 H   0  0  0  0  0  0  0  0  0  0  0  0
    4.9744   -1.1930    1.7087 H   0  0  0  0  0  0  0  0  0  0  0  0
   -2.7225   -2.1655   -3.7587 H   0  0  0  0  0  0  0  0  0  0  0  0
    6.9296   -0.7859    0.3792 H   0  0  0  0  0  0  0  0  0  0  0  0
    2.5295    1.0964    0.1931 H   0  0  0  0  0  0  0  0  0  0  0  0
    2.7828    2.6522   -0.5266 H   0  0  0  0  0  0  0  0  0  0  0  0
    4.9730    3.5654   -0.9875 H   0  0  0  0  0  0  0  0  0  0  0  0
    8.3208    0.8911   -0.7829 H   0  0  0  0  0  0  0  0  0  0  0  0
    7.3415    3.0653   -1.4668 H   0  0  0  0  0  0  0  0  0  0  0  0
   -6.7554    3.2542    1.2676 H   0  0  0  0  0  0  0  0  0  0  0  0
   -5.0972    2.6170    1.3793 H   0  0  0  0  0  0  0  0  0  0  0  0
    3.4665    3.5380    1.5487 H   0  0  0  0  0  0  0  0  0  0  0  0
    1.9996    2.8458    1.6870 H   0  0  0  0  0  0  0  0  0  0  0  0
   -4.8771    5.2609   -0.9332 H   0  0  0  0  0  0  0  0  0  0  0  0
  1 16  1  0  0  0  0
  1 21  1  0  0  0  0
  2 22  1  0  0  0  0
  2 29  1  0  0  0  0
  3 18  2  0  0  0  0
  4 24  1  0  0  0  0
  4 45  1  0  0  0  0
  5 23  2  0  0  0  0
  6 24  2  0  0  0  0
  7 35  1  0  0  0  0
  7 56  1  0  0  0  0
  8 35  2  0  0  0  0
  9 16  1  0  0  0  0
  9 18  1  0  0  0  0
  9 19  1  0  0  0  0
 10 17  1  0  0  0  0
 10 23  1  0  0  0  0
 10 40  1  0  0  0  0
 11 14  1  0  0  0  0
 11 29  2  0  0  0  0
 11 34  1  0  0  0  0
 12 15  2  0  0  0  0
 12 29  1  0  0  0  0
 13 30  1  0  0  0  0
 13 54  1  0  0  0  0
 13 55  1  0  0  0  0
 14 15  1  0  0  0  0
 16 17  1  6  0  0  0
 16 36  1  0  0  0  0
 17 18  1  0  0  0  0
 17 37  1  6  0  0  0
 19 20  2  0  0  0  0
 19 24  1  0  0  0  0
 20 21  1  0  0  0  0
 20 22  1  0  0  0  0
 21 38  1  0  0  0  0
 21 39  1  0  0  0  0
 22 41  1  0  0  0  0
 22 42  1  0  0  0  0
 23 25  1  0  0  0  0
 25 26  1  0  0  0  0
 25 43  1  0  0  0  0
 25 44  1  0  0  0  0
 26 27  2  0  0  0  0
 26 28  1  0  0  0  0
 27 30  1  0  0  0  0
 27 31  1  0  0  0  0
 28 32  2  0  0  0  0
 28 46  1  0  0  0  0
 30 47  1  0  0  0  0
 30 48  1  0  0  0  0
 31 33  2  0  0  0  0
 31 49  1  0  0  0  0
 32 33  1  0  0  0  0
 32 50  1  0  0  0  0
 33 51  1  0  0  0  0
 34 35  1  0  0  0  0
 34 52  1  0  0  0  0
 34 53  1  0  0  0  0
M  END
