DB00383
 OpenBabel07062211533D

 53 55  0  0  1  0  0  0  0  0999 V2000
    2.7530   -0.7728    1.8756 O   0  0  0  0  0  0  0  0  0  0  0  0
   -0.7087   -0.2938    1.0580 O   0  0  0  0  0  0  0  0  0  0  0  0
    0.4501   -0.1197    3.0424 O   0  0  0  0  0  0  0  0  0  0  0  0
   -3.3862    1.1824    0.0955 N   0  0  0  0  0  0  0  0  0  0  0  0
   -3.5932   -1.1755    0.5199 N   0  0  0  0  0  0  0  0  0  0  0  0
    1.9421    0.5315    0.0625 C   0  0  0  0  0  0  0  0  0  0  0  0
    3.2300    0.2861   -0.7349 C   0  0  0  0  0  0  0  0  0  0  0  0
    2.0396    1.8320    0.8716 C   0  0  0  0  0  0  0  0  0  0  0  0
    1.6413   -0.6528    0.9794 C   0  0  1  0  0  0  0  0  0  0  0  0
    3.5812    1.4798   -1.6200 C   0  0  0  0  0  0  0  0  0  0  0  0
    2.3924    3.0231   -0.0164 C   0  0  0  0  0  0  0  0  0  0  0  0
    3.6685    2.7720   -0.8139 C   0  0  0  0  0  0  0  0  0  0  0  0
    1.4773   -2.0116    0.3044 C   0  0  0  0  0  0  0  0  0  0  0  0
    0.4157   -0.3215    1.8346 C   0  0  0  0  0  0  0  0  0  0  0  0
    1.9253   -3.1368    0.9617 C   0  0  0  0  0  0  0  0  0  0  0  0
    0.8870   -2.0670   -0.9395 C   0  0  0  0  0  0  0  0  0  0  0  0
   -1.9283   -0.0016    1.7469 C   0  0  0  0  0  0  0  0  0  0  0  0
    1.7758   -4.3787    0.3444 C   0  0  0  0  0  0  0  0  0  0  0  0
    0.7373   -3.3089   -1.5567 C   0  0  0  0  0  0  0  0  0  0  0  0
   -3.0450   -0.0180    0.7197 C   0  0  0  0  0  0  0  0  0  0  0  0
   -4.4750    1.2106   -0.8765 C   0  0  0  0  0  0  0  0  0  0  0  0
   -5.4338    0.0665   -0.5824 C   0  0  0  0  0  0  0  0  0  0  0  0
    1.1817   -4.4648   -0.9148 C   0  0  0  0  0  0  0  0  0  0  0  0
   -4.6578   -1.2392   -0.4877 C   0  0  0  0  0  0  0  0  0  0  0  0
   -2.6404    2.4199    0.2739 C   0  0  0  0  0  0  0  0  0  0  0  0
    1.1223    0.6796   -0.6527 H   0  0  0  0  0  0  0  0  0  0  0  0
    3.1491   -0.5976   -1.3753 H   0  0  0  0  0  0  0  0  0  0  0  0
    4.0801    0.1131   -0.0641 H   0  0  0  0  0  0  0  0  0  0  0  0
    1.0916    2.0638    1.3694 H   0  0  0  0  0  0  0  0  0  0  0  0
    2.8009    1.7454    1.6566 H   0  0  0  0  0  0  0  0  0  0  0  0
    4.5363    1.2965   -2.1252 H   0  0  0  0  0  0  0  0  0  0  0  0
    2.8214    1.5885   -2.4038 H   0  0  0  0  0  0  0  0  0  0  0  0
    2.5151    3.9200    0.6012 H   0  0  0  0  0  0  0  0  0  0  0  0
    1.5634    3.2220   -0.7068 H   0  0  0  0  0  0  0  0  0  0  0  0
    4.5226    2.7170   -0.1277 H   0  0  0  0  0  0  0  0  0  0  0  0
    3.8541    3.6156   -1.4881 H   0  0  0  0  0  0  0  0  0  0  0  0
    3.4857   -1.2349    1.4348 H   0  0  0  0  0  0  0  0  0  0  0  0
    2.3666   -3.1113    1.9528 H   0  0  0  0  0  0  0  0  0  0  0  0
    0.5130   -1.1922   -1.4585 H   0  0  0  0  0  0  0  0  0  0  0  0
   -2.1177   -0.7835    2.4922 H   0  0  0  0  0  0  0  0  0  0  0  0
   -1.8621    0.9629    2.2573 H   0  0  0  0  0  0  0  0  0  0  0  0
    2.1156   -5.2798    0.8467 H   0  0  0  0  0  0  0  0  0  0  0  0
    0.2703   -3.3768   -2.5349 H   0  0  0  0  0  0  0  0  0  0  0  0
   -5.0190    2.1607   -0.8256 H   0  0  0  0  0  0  0  0  0  0  0  0
   -4.0607    1.1124   -1.8866 H   0  0  0  0  0  0  0  0  0  0  0  0
   -5.9520    0.2541    0.3666 H   0  0  0  0  0  0  0  0  0  0  0  0
   -6.1966    0.0005   -1.3655 H   0  0  0  0  0  0  0  0  0  0  0  0
    1.0627   -5.4320   -1.3941 H   0  0  0  0  0  0  0  0  0  0  0  0
   -4.2199   -1.5036   -1.4572 H   0  0  0  0  0  0  0  0  0  0  0  0
   -5.3465   -2.0455   -0.2136 H   0  0  0  0  0  0  0  0  0  0  0  0
   -2.9452    3.1819   -0.4520 H   0  0  0  0  0  0  0  0  0  0  0  0
   -2.8137    2.8283    1.2743 H   0  0  0  0  0  0  0  0  0  0  0  0
   -1.5676    2.2537    0.1323 H   0  0  0  0  0  0  0  0  0  0  0  0
  1 37  1  0  0  0  0
  2 14  1  0  0  0  0
  2 17  1  0  0  0  0
  3 14  2  0  0  0  0
  4 20  1  0  0  0  0
  4 21  1  0  0  0  0
  4 25  1  0  0  0  0
  5 20  2  0  0  0  0
  5 24  1  0  0  0  0
  6  7  1  0  0  0  0
  6  8  1  0  0  0  0
  6  9  1  0  0  0  0
  6 26  1  0  0  0  0
  7 10  1  0  0  0  0
  7 27  1  0  0  0  0
  7 28  1  0  0  0  0
  8 11  1  0  0  0  0
  8 29  1  0  0  0  0
  8 30  1  0  0  0  0
  9  1  1  1  0  0  0
  9 13  1  0  0  0  0
  9 14  1  0  0  0  0
 10 12  1  0  0  0  0
 10 31  1  0  0  0  0
 10 32  1  0  0  0  0
 11 12  1  0  0  0  0
 11 33  1  0  0  0  0
 11 34  1  0  0  0  0
 12 35  1  0  0  0  0
 12 36  1  0  0  0  0
 13 15  2  0  0  0  0
 13 16  1  0  0  0  0
 15 18  1  0  0  0  0
 15 38  1  0  0  0  0
 16 19  2  0  0  0  0
 16 39  1  0  0  0  0
 17 20  1  0  0  0  0
 17 40  1  0  0  0  0
 17 41  1  0  0  0  0
 18 23  2  0  0  0  0
 18 42  1  0  0  0  0
 19 23  1  0  0  0  0
 19 43  1  0  0  0  0
 21 22  1  0  0  0  0
 21 44  1  0  0  0  0
 21 45  1  0  0  0  0
 22 24  1  0  0  0  0
 22 46  1  0  0  0  0
 22 47  1  0  0  0  0
 23 48  1  0  0  0  0
 24 49  1  0  0  0  0
 24 50  1  0  0  0  0
 25 51  1  0  0  0  0
 25 52  1  0  0  0  0
 25 53  1  0  0  0  0
M  END
