DB00603
 OpenBabel07062211533D

 62 65  0  0  1  0  0  0  0  0999 V2000
   -3.3769    0.1012   -1.1283 O   0  0  0  0  0  0  0  0  0  0  0  0
   -5.1110    0.0627    1.6331 O   0  0  0  0  0  0  0  0  0  0  0  0
    6.1698   -0.7121   -2.2324 O   0  0  0  0  0  0  0  0  0  0  0  0
   -5.4118    1.1755   -0.9229 O   0  0  0  0  0  0  0  0  0  0  0  0
   -1.7541   -0.2978    0.6690 C   0  0  1  0  0  0  0  0  0  0  0  0
   -0.8889    0.8937    0.1958 C   0  0  2  0  0  0  0  0  0  0  0  0
    0.5999    0.7268    0.5266 C   0  0  1  0  0  0  0  0  0  0  0  0
    1.1311   -0.5637   -0.1634 C   0  0  1  0  0  0  0  0  0  0  0  0
   -3.1570    0.2298    0.2737 C   0  0  1  0  0  0  0  0  0  0  0  0
    2.6714   -0.8003    0.0814 C   0  0  2  0  0  0  0  0  0  0  0  0
   -1.2579   -1.5486   -0.0736 C   0  0  0  0  0  0  0  0  0  0  0  0
    0.2429   -1.7962    0.1621 C   0  0  0  0  0  0  0  0  0  0  0  0
   -1.6289    2.1103    0.7460 C   0  0  0  0  0  0  0  0  0  0  0  0
    1.4146    1.9418    0.0660 C   0  0  0  0  0  0  0  0  0  0  0  0
   -3.1199    1.7267    0.6529 C   0  0  0  0  0  0  0  0  0  0  0  0
    2.9058    1.7731    0.3867 C   0  0  1  0  0  0  0  0  0  0  0  0
    3.4553    0.4903   -0.2435 C   0  0  0  0  0  0  0  0  0  0  0  0
   -1.6833   -0.5386    2.2026 C   0  0  0  0  0  0  0  0  0  0  0  0
    3.1267   -1.9650   -0.8483 C   0  0  0  0  0  0  0  0  0  0  0  0
    2.9704   -1.1950    1.5463 C   0  0  0  0  0  0  0  0  0  0  0  0
   -4.3034   -0.5054    0.8997 C   0  0  0  0  0  0  0  0  0  0  0  0
    4.6332   -2.0692   -1.0018 C   0  0  0  0  0  0  0  0  0  0  0  0
    4.5669    0.4896   -1.0030 C   0  0  0  0  0  0  0  0  0  0  0  0
    3.6385    3.0756    0.0313 C   0  0  0  0  0  0  0  0  0  0  0  0
    5.1858   -0.7629   -1.4972 C   0  0  0  0  0  0  0  0  0  0  0  0
   -4.4191   -1.9725    0.5851 C   0  0  0  0  0  0  0  0  0  0  0  0
   -4.5515    0.6211   -1.5935 C   0  0  0  0  0  0  0  0  0  0  0  0
   -4.6455    0.4152   -3.0751 C   0  0  0  0  0  0  0  0  0  0  0  0
   -0.9585    0.9644   -0.9024 H   0  0  0  0  0  0  0  0  0  0  0  0
    0.7194    0.6444    1.6119 H   0  0  0  0  0  0  0  0  0  0  0  0
    1.0125   -0.3952   -1.2465 H   0  0  0  0  0  0  0  0  0  0  0  0
   -1.4203   -1.4488   -1.1540 H   0  0  0  0  0  0  0  0  0  0  0  0
   -1.8019   -2.4435    0.2414 H   0  0  0  0  0  0  0  0  0  0  0  0
    0.3960   -2.1127    1.1986 H   0  0  0  0  0  0  0  0  0  0  0  0
    0.5365   -2.6453   -0.4646 H   0  0  0  0  0  0  0  0  0  0  0  0
   -1.4152    3.0132    0.1646 H   0  0  0  0  0  0  0  0  0  0  0  0
   -1.3496    2.3140    1.7859 H   0  0  0  0  0  0  0  0  0  0  0  0
    1.0392    2.8420    0.5683 H   0  0  0  0  0  0  0  0  0  0  0  0
    1.2774    2.1014   -1.0121 H   0  0  0  0  0  0  0  0  0  0  0  0
   -3.5858    1.9362    1.6224 H   0  0  0  0  0  0  0  0  0  0  0  0
   -3.5840    2.3954   -0.0772 H   0  0  0  0  0  0  0  0  0  0  0  0
    3.0063    1.6624    1.4750 H   0  0  0  0  0  0  0  0  0  0  0  0
   -2.0885    0.3001    2.7774 H   0  0  0  0  0  0  0  0  0  0  0  0
   -2.2514   -1.4285    2.4911 H   0  0  0  0  0  0  0  0  0  0  0  0
   -0.6628   -0.6993    2.5596 H   0  0  0  0  0  0  0  0  0  0  0  0
    2.6924   -1.8259   -1.8483 H   0  0  0  0  0  0  0  0  0  0  0  0
    2.7516   -2.9267   -0.4784 H   0  0  0  0  0  0  0  0  0  0  0  0
    2.5316   -0.4961    2.2648 H   0  0  0  0  0  0  0  0  0  0  0  0
    2.5818   -2.1911    1.7830 H   0  0  0  0  0  0  0  0  0  0  0  0
    4.0485   -1.2182    1.7437 H   0  0  0  0  0  0  0  0  0  0  0  0
    4.8678   -2.8484   -1.7354 H   0  0  0  0  0  0  0  0  0  0  0  0
    5.1256   -2.3286   -0.0596 H   0  0  0  0  0  0  0  0  0  0  0  0
    5.1098    1.3948   -1.2482 H   0  0  0  0  0  0  0  0  0  0  0  0
    3.5956    3.2828   -1.0437 H   0  0  0  0  0  0  0  0  0  0  0  0
    3.1852    3.9271    0.5512 H   0  0  0  0  0  0  0  0  0  0  0  0
    4.6893    3.0365    0.3385 H   0  0  0  0  0  0  0  0  0  0  0  0
   -4.1233   -2.1927   -0.4426 H   0  0  0  0  0  0  0  0  0  0  0  0
   -3.8261   -2.5604    1.2870 H   0  0  0  0  0  0  0  0  0  0  0  0
   -5.4679   -2.2686    0.6884 H   0  0  0  0  0  0  0  0  0  0  0  0
   -4.6272   -0.6537   -3.3016 H   0  0  0  0  0  0  0  0  0  0  0  0
   -3.8195    0.9292   -3.5730 H   0  0  0  0  0  0  0  0  0  0  0  0
   -5.5876    0.8333   -3.4405 H   0  0  0  0  0  0  0  0  0  0  0  0
  1  9  1  0  0  0  0
  1 27  1  0  0  0  0
  2 21  2  0  0  0  0
  3 25  2  0  0  0  0
  4 27  2  0  0  0  0
  5  6  1  6  0  0  0
  5 11  1  0  0  0  0
  5 18  1  0  0  0  0
  6  7  1  1  0  0  0
  6 13  1  0  0  0  0
  6 29  1  0  0  0  0
  7  8  1  6  0  0  0
  7 14  1  0  0  0  0
  7 30  1  0  0  0  0
  8 10  1  1  0  0  0
  8 12  1  0  0  0  0
  8 31  1  0  0  0  0
  9  5  1  1  0  0  0
  9 15  1  0  0  0  0
  9 21  1  0  0  0  0
 10 17  1  0  0  0  0
 10 19  1  0  0  0  0
 10 20  1  1  0  0  0
 11 12  1  0  0  0  0
 11 32  1  0  0  0  0
 11 33  1  0  0  0  0
 12 34  1  0  0  0  0
 12 35  1  0  0  0  0
 13 15  1  0  0  0  0
 13 36  1  0  0  0  0
 13 37  1  0  0  0  0
 14 16  1  0  0  0  0
 14 38  1  0  0  0  0
 14 39  1  0  0  0  0
 15 40  1  0  0  0  0
 15 41  1  0  0  0  0
 16 17  1  0  0  0  0
 16 24  1  0  0  0  0
 16 42  1  1  0  0  0
 17 23  2  0  0  0  0
 18 43  1  0  0  0  0
 18 44  1  0  0  0  0
 18 45  1  0  0  0  0
 19 22  1  0  0  0  0
 19 46  1  0  0  0  0
 19 47  1  0  0  0  0
 20 48  1  0  0  0  0
 20 49  1  0  0  0  0
 20 50  1  0  0  0  0
 21 26  1  0  0  0  0
 22 25  1  0  0  0  0
 22 51  1  0  0  0  0
 22 52  1  0  0  0  0
 23 25  1  0  0  0  0
 23 53  1  0  0  0  0
 24 54  1  0  0  0  0
 24 55  1  0  0  0  0
 24 56  1  0  0  0  0
 26 57  1  0  0  0  0
 26 58  1  0  0  0  0
 26 59  1  0  0  0  0
 27 28  1  0  0  0  0
 28 60  1  0  0  0  0
 28 61  1  0  0  0  0
 28 62  1  0  0  0  0
M  END
