DB00152
 OpenBabel07062211533D

 35 36  0  0  0  0  0  0  0  0999 V2000
    1.5926   -1.4134    1.6169 S   0  0  0  0  0  0  0  0  0  0  0  0
    6.2001   -0.2485    0.8892 O   0  0  0  0  0  0  0  0  0  0  0  0
    0.4524   -0.3194   -0.3033 N   0  0  0  0  0  0  0  0  0  0  0  0
   -3.9848   -0.7922    0.1128 N   0  0  0  0  0  0  0  0  0  0  0  0
   -3.5218    1.5485    0.4512 N   0  0  0  0  0  0  0  0  0  0  0  0
   -2.3927   -2.1818   -0.9633 N   0  0  0  0  0  0  0  0  0  0  0  0
    1.6714    0.2947   -0.2641 C   0  0  0  0  0  0  0  0  0  0  0  0
   -0.5718    0.0139   -1.2958 C   0  0  0  0  0  0  0  0  0  0  0  0
    2.4500   -0.1947    0.7575 C   0  0  0  0  0  0  0  0  0  0  0  0
    3.8200    0.1743    1.1652 C   0  0  0  0  0  0  0  0  0  0  0  0
   -1.9002    0.1451   -0.6421 C   0  0  0  0  0  0  0  0  0  0  0  0
    0.2299   -1.2361    0.5980 C   0  0  0  0  0  0  0  0  0  0  0  0
    1.9786    1.3371   -1.2545 C   0  0  0  0  0  0  0  0  0  0  0  0
    4.9070   -0.6583    0.4618 C   0  0  0  0  0  0  0  0  0  0  0  0
   -2.7783   -0.9070   -0.4801 C   0  0  0  0  0  0  0  0  0  0  0  0
   -2.3295    1.3617   -0.1523 C   0  0  0  0  0  0  0  0  0  0  0  0
   -4.2880    0.4454    0.5488 C   0  0  0  0  0  0  0  0  0  0  0  0
   -5.6142    0.6121    1.2099 C   0  0  0  0  0  0  0  0  0  0  0  0
   -0.5461   -0.7431   -2.0866 H   0  0  0  0  0  0  0  0  0  0  0  0
   -0.3591    0.9582   -1.8057 H   0  0  0  0  0  0  0  0  0  0  0  0
    3.9478    0.0770    2.2515 H   0  0  0  0  0  0  0  0  0  0  0  0
    4.0013    1.2381    0.9652 H   0  0  0  0  0  0  0  0  0  0  0  0
   -0.6456   -1.8425    0.7405 H   0  0  0  0  0  0  0  0  0  0  0  0
    1.8505    0.9681   -2.2772 H   0  0  0  0  0  0  0  0  0  0  0  0
    1.3503    2.2210   -1.1053 H   0  0  0  0  0  0  0  0  0  0  0  0
    3.0189    1.6695   -1.1736 H   0  0  0  0  0  0  0  0  0  0  0  0
    4.8498   -0.5459   -0.6264 H   0  0  0  0  0  0  0  0  0  0  0  0
    4.7960   -1.7222    0.6956 H   0  0  0  0  0  0  0  0  0  0  0  0
   -1.7143    2.2531   -0.2258 H   0  0  0  0  0  0  0  0  0  0  0  0
   -1.8468   -2.2416   -1.8124 H   0  0  0  0  0  0  0  0  0  0  0  0
   -3.0539   -2.9321   -0.7991 H   0  0  0  0  0  0  0  0  0  0  0  0
    6.2948    0.6940    0.6693 H   0  0  0  0  0  0  0  0  0  0  0  0
   -5.9425   -0.3260    1.6682 H   0  0  0  0  0  0  0  0  0  0  0  0
   -5.5626    1.3728    1.9952 H   0  0  0  0  0  0  0  0  0  0  0  0
   -6.3592    0.9203    0.4706 H   0  0  0  0  0  0  0  0  0  0  0  0
  1  9  1  0  0  0  0
  1 12  1  0  0  0  0
  2 14  1  0  0  0  0
  2 32  1  0  0  0  0
  3  7  1  0  0  0  0
  3  8  1  0  0  0  0
  3 12  2  0  0  0  0
  4 15  2  0  0  0  0
  4 17  1  0  0  0  0
  5 16  1  0  0  0  0
  5 17  2  0  0  0  0
  6 15  1  0  0  0  0
  6 30  1  0  0  0  0
  6 31  1  0  0  0  0
  7  9  2  0  0  0  0
  7 13  1  0  0  0  0
  8 11  1  0  0  0  0
  8 19  1  0  0  0  0
  8 20  1  0  0  0  0
  9 10  1  0  0  0  0
 10 14  1  0  0  0  0
 10 21  1  0  0  0  0
 10 22  1  0  0  0  0
 11 15  1  0  0  0  0
 11 16  2  0  0  0  0
 12 23  1  0  0  0  0
 13 24  1  0  0  0  0
 13 25  1  0  0  0  0
 13 26  1  0  0  0  0
 14 27  1  0  0  0  0
 14 28  1  0  0  0  0
 16 29  1  0  0  0  0
 17 18  1  0  0  0  0
 18 33  1  0  0  0  0
 18 34  1  0  0  0  0
 18 35  1  0  0  0  0
M  END
