DB00887
 OpenBabel07062211533D

 45 46  0  0  0  0  0  0  0  0999 V2000
   -4.2539    1.1950   -0.8943 S   0  0  0  0  0  0  0  0  0  0  0  0
   -1.2907    1.3897   -1.2925 O   0  0  0  0  0  0  0  0  0  0  0  0
   -3.7075    2.1344   -1.8618 O   0  0  0  0  0  0  0  0  0  0  0  0
   -5.5416    0.5640   -1.1421 O   0  0  0  0  0  0  0  0  0  0  0  0
   -1.9828   -4.5002    0.7003 O   0  0  0  0  0  0  0  0  0  0  0  0
   -4.1846   -3.9395    0.7669 O   0  0  0  0  0  0  0  0  0  0  0  0
    0.5944   -0.6262   -0.8475 N   0  0  0  0  0  0  0  0  0  0  0  0
   -4.2931    1.9417    0.6413 N   0  0  0  0  0  0  0  0  0  0  0  0
    1.6404   -1.4340   -0.2682 C   0  0  0  0  0  0  0  0  0  0  0  0
    2.9836   -0.7126   -0.3390 C   0  0  0  0  0  0  0  0  0  0  0  0
   -0.7568   -0.8414   -0.6257 C   0  0  0  0  0  0  0  0  0  0  0  0
   -1.7111    0.1703   -0.8476 C   0  0  0  0  0  0  0  0  0  0  0  0
   -3.0676   -0.0614   -0.6199 C   0  0  0  0  0  0  0  0  0  0  0  0
    4.1343   -1.5514    0.2227 C   0  0  0  0  0  0  0  0  0  0  0  0
   -1.2103   -2.0932   -0.1676 C   0  0  0  0  0  0  0  0  0  0  0  0
   -2.5667   -2.3250    0.0602 C   0  0  0  0  0  0  0  0  0  0  0  0
   -3.4953   -1.3091   -0.1659 C   0  0  0  0  0  0  0  0  0  0  0  0
    5.4672   -0.8331    0.0780 C   0  0  0  0  0  0  0  0  0  0  0  0
   -0.4003    2.0891   -0.4978 C   0  0  0  0  0  0  0  0  0  0  0  0
   -3.0128   -3.6259    0.5332 C   0  0  0  0  0  0  0  0  0  0  0  0
   -0.6292    2.1677    0.8649 C   0  0  0  0  0  0  0  0  0  0  0  0
    0.6973    2.6941   -1.0845 C   0  0  0  0  0  0  0  0  0  0  0  0
    0.2680    2.8738    1.6663 C   0  0  0  0  0  0  0  0  0  0  0  0
    1.5946    3.4002   -0.2832 C   0  0  0  0  0  0  0  0  0  0  0  0
    1.3799    3.4900    1.0923 C   0  0  0  0  0  0  0  0  0  0  0  0
    1.4218   -1.6465    0.7857 H   0  0  0  0  0  0  0  0  0  0  0  0
    1.7081   -2.3892   -0.8015 H   0  0  0  0  0  0  0  0  0  0  0  0
    3.2003   -0.4524   -1.3832 H   0  0  0  0  0  0  0  0  0  0  0  0
    2.9192    0.2358    0.2095 H   0  0  0  0  0  0  0  0  0  0  0  0
    0.8577    0.1094   -1.4914 H   0  0  0  0  0  0  0  0  0  0  0  0
    3.9518   -1.7697    1.2812 H   0  0  0  0  0  0  0  0  0  0  0  0
    4.1855   -2.5115   -0.3036 H   0  0  0  0  0  0  0  0  0  0  0  0
   -0.4853   -2.8860   -0.0045 H   0  0  0  0  0  0  0  0  0  0  0  0
   -4.5505   -1.4917    0.0206 H   0  0  0  0  0  0  0  0  0  0  0  0
    5.4588    0.1204    0.6157 H   0  0  0  0  0  0  0  0  0  0  0  0
    6.2750   -1.4475    0.4879 H   0  0  0  0  0  0  0  0  0  0  0  0
    5.6930   -0.6327   -0.9742 H   0  0  0  0  0  0  0  0  0  0  0  0
   -5.1318    1.8034    1.2181 H   0  0  0  0  0  0  0  0  0  0  0  0
   -3.8793    2.8781    0.7272 H   0  0  0  0  0  0  0  0  0  0  0  0
   -1.4907    1.7077    1.3374 H   0  0  0  0  0  0  0  0  0  0  0  0
    0.8660    2.6254   -2.1549 H   0  0  0  0  0  0  0  0  0  0  0  0
    0.1000    2.9457    2.7369 H   0  0  0  0  0  0  0  0  0  0  0  0
    2.4607    3.8793   -0.7301 H   0  0  0  0  0  0  0  0  0  0  0  0
    2.0785    4.0397    1.7160 H   0  0  0  0  0  0  0  0  0  0  0  0
   -2.2942   -5.3743    1.0188 H   0  0  0  0  0  0  0  0  0  0  0  0
  1  3  2  0  0  0  0
  1  4  2  0  0  0  0
  1  8  1  0  0  0  0
  1 13  1  0  0  0  0
  2 12  1  0  0  0  0
  2 19  1  0  0  0  0
  5 20  1  0  0  0  0
  5 45  1  0  0  0  0
  6 20  2  0  0  0  0
  7  9  1  0  0  0  0
  7 11  1  0  0  0  0
  7 30  1  0  0  0  0
  8 38  1  0  0  0  0
  8 39  1  0  0  0  0
  9 10  1  0  0  0  0
  9 26  1  0  0  0  0
  9 27  1  0  0  0  0
 10 14  1  0  0  0  0
 10 28  1  0  0  0  0
 10 29  1  0  0  0  0
 11 12  2  0  0  0  0
 11 15  1  0  0  0  0
 12 13  1  0  0  0  0
 13 17  2  0  0  0  0
 14 18  1  0  0  0  0
 14 31  1  0  0  0  0
 14 32  1  0  0  0  0
 15 16  2  0  0  0  0
 15 33  1  0  0  0  0
 16 17  1  0  0  0  0
 16 20  1  0  0  0  0
 17 34  1  0  0  0  0
 18 35  1  0  0  0  0
 18 36  1  0  0  0  0
 18 37  1  0  0  0  0
 19 21  2  0  0  0  0
 19 22  1  0  0  0  0
 21 23  1  0  0  0  0
 21 40  1  0  0  0  0
 22 24  2  0  0  0  0
 22 41  1  0  0  0  0
 23 25  2  0  0  0  0
 23 42  1  0  0  0  0
 24 25  1  0  0  0  0
 24 43  1  0  0  0  0
 25 44  1  0  0  0  0
M  END
