DB00758
 OpenBabel07062211533D

 37 39  0  0  1  0  0  0  0  0999 V2000
   -2.9649    0.6189    2.7544 Cl  0  0  0  0  0  0  0  0  0  0  0  0
    4.8849   -0.0097   -0.6976 S   0  0  0  0  0  0  0  0  0  0  0  0
   -1.5699   -1.9845   -0.7702 O   0  0  0  0  0  0  0  0  0  0  0  0
   -1.6574   -2.6910    1.4212 O   0  0  0  0  0  0  0  0  0  0  0  0
    0.5487   -0.4186    0.2753 N   0  0  0  0  0  0  0  0  0  0  0  0
    1.3622   -1.5713    0.7156 C   0  0  0  0  0  0  0  0  0  0  0  0
    1.1971    0.8681    0.6151 C   0  0  0  0  0  0  0  0  0  0  0  0
   -0.7879   -0.4777    0.8672 C   0  0  1  0  0  0  0  0  0  0  0  0
    2.6912   -1.6448   -0.0627 C   0  0  0  0  0  0  0  0  0  0  0  0
    2.6099    0.8813    0.1136 C   0  0  0  0  0  0  0  0  0  0  0  0
    3.2942   -0.2830   -0.1695 C   0  0  0  0  0  0  0  0  0  0  0  0
   -1.6668    0.6443    0.3578 C   0  0  0  0  0  0  0  0  0  0  0  0
    3.4306    2.0279   -0.1059 C   0  0  0  0  0  0  0  0  0  0  0  0
   -1.3790   -1.8481    0.5779 C   0  0  0  0  0  0  0  0  0  0  0  0
    4.6912    1.6867   -0.5494 C   0  0  0  0  0  0  0  0  0  0  0  0
   -2.6648    1.1848    1.1517 C   0  0  0  0  0  0  0  0  0  0  0  0
   -1.4367    1.1086   -0.9276 C   0  0  0  0  0  0  0  0  0  0  0  0
   -3.4547    2.2177    0.6472 C   0  0  0  0  0  0  0  0  0  0  0  0
   -2.2268    2.1417   -1.4319 C   0  0  0  0  0  0  0  0  0  0  0  0
   -3.2358    2.6962   -0.6447 C   0  0  0  0  0  0  0  0  0  0  0  0
   -2.1434   -3.2266   -1.1903 C   0  0  0  0  0  0  0  0  0  0  0  0
    0.8759   -2.5373    0.5466 H   0  0  0  0  0  0  0  0  0  0  0  0
    1.5672   -1.5007    1.7930 H   0  0  0  0  0  0  0  0  0  0  0  0
    1.2220    1.0127    1.7041 H   0  0  0  0  0  0  0  0  0  0  0  0
    0.6974    1.7394    0.1838 H   0  0  0  0  0  0  0  0  0  0  0  0
   -0.6702   -0.4058    1.9558 H   0  0  0  0  0  0  0  0  0  0  0  0
    2.5030   -2.0308   -1.0724 H   0  0  0  0  0  0  0  0  0  0  0  0
    3.3732   -2.3384    0.4418 H   0  0  0  0  0  0  0  0  0  0  0  0
    3.1163    3.0512    0.0549 H   0  0  0  0  0  0  0  0  0  0  0  0
    5.5075    2.3523   -0.7922 H   0  0  0  0  0  0  0  0  0  0  0  0
   -0.6875    0.6831   -1.5889 H   0  0  0  0  0  0  0  0  0  0  0  0
   -4.2453    2.6604    1.2477 H   0  0  0  0  0  0  0  0  0  0  0  0
   -2.0621    2.5090   -2.4407 H   0  0  0  0  0  0  0  0  0  0  0  0
   -3.8521    3.4992   -1.0382 H   0  0  0  0  0  0  0  0  0  0  0  0
   -2.2422   -3.2041   -2.2788 H   0  0  0  0  0  0  0  0  0  0  0  0
   -3.1368   -3.3529   -0.7497 H   0  0  0  0  0  0  0  0  0  0  0  0
   -1.4882   -4.0581   -0.9140 H   0  0  0  0  0  0  0  0  0  0  0  0
  1 16  1  0  0  0  0
  2 11  1  0  0  0  0
  2 15  1  0  0  0  0
  3 14  1  0  0  0  0
  3 21  1  0  0  0  0
  4 14  2  0  0  0  0
  5  6  1  0  0  0  0
  5  7  1  0  0  0  0
  5  8  1  0  0  0  0
  6  9  1  0  0  0  0
  6 22  1  0  0  0  0
  6 23  1  0  0  0  0
  7 10  1  0  0  0  0
  7 24  1  0  0  0  0
  7 25  1  0  0  0  0
  8 12  1  0  0  0  0
  8 14  1  0  0  0  0
  8 26  1  1  0  0  0
  9 11  1  0  0  0  0
  9 27  1  0  0  0  0
  9 28  1  0  0  0  0
 10 11  2  0  0  0  0
 10 13  1  0  0  0  0
 12 16  2  0  0  0  0
 12 17  1  0  0  0  0
 13 15  2  0  0  0  0
 13 29  1  0  0  0  0
 15 30  1  0  0  0  0
 16 18  1  0  0  0  0
 17 19  2  0  0  0  0
 17 31  1  0  0  0  0
 18 20  2  0  0  0  0
 18 32  1  0  0  0  0
 19 20  1  0  0  0  0
 19 33  1  0  0  0  0
 20 34  1  0  0  0  0
 21 35  1  0  0  0  0
 21 36  1  0  0  0  0
 21 37  1  0  0  0  0
M  END
