DB00610
 OpenBabel07062211533D

 25 25  0  0  1  0  0  0  0  0999 V2000
    1.2741    0.4643   -1.8285 O   0  0  0  0  0  0  0  0  0  0  0  0
   -3.6592   -1.7338    0.5484 O   0  0  0  0  0  0  0  0  0  0  0  0
    3.1654   -0.7693   -0.0149 N   0  0  0  0  0  0  0  0  0  0  0  0
    0.8554   -0.4395   -0.8021 C   0  0  1  0  0  0  0  0  0  0  0  0
    1.8199   -0.3554    0.4024 C   0  0  2  0  0  0  0  0  0  0  0  0
   -0.5755   -0.0812   -0.4615 C   0  0  0  0  0  0  0  0  0  0  0  0
    1.9183    1.0580    0.9794 C   0  0  0  0  0  0  0  0  0  0  0  0
   -1.4584   -1.0876   -0.1123 C   0  0  0  0  0  0  0  0  0  0  0  0
   -0.9680    1.2450   -0.5067 C   0  0  0  0  0  0  0  0  0  0  0  0
   -2.7768   -0.7573    0.2020 C   0  0  0  0  0  0  0  0  0  0  0  0
   -2.2861    1.5754   -0.1925 C   0  0  0  0  0  0  0  0  0  0  0  0
   -3.1905    0.5743    0.1620 C   0  0  0  0  0  0  0  0  0  0  0  0
    0.8788   -1.4454   -1.2409 H   0  0  0  0  0  0  0  0  0  0  0  0
    1.4782   -1.0353    1.1923 H   0  0  0  0  0  0  0  0  0  0  0  0
    2.6765    1.0995    1.7709 H   0  0  0  0  0  0  0  0  0  0  0  0
    2.1967    1.7986    0.2218 H   0  0  0  0  0  0  0  0  0  0  0  0
    0.9776    1.3691    1.4430 H   0  0  0  0  0  0  0  0  0  0  0  0
   -1.1314   -2.1234   -0.0797 H   0  0  0  0  0  0  0  0  0  0  0  0
   -0.2849    2.0457   -0.7735 H   0  0  0  0  0  0  0  0  0  0  0  0
    3.1348   -1.7273   -0.3615 H   0  0  0  0  0  0  0  0  0  0  0  0
    3.7877   -0.7763    0.7923 H   0  0  0  0  0  0  0  0  0  0  0  0
    2.1956    0.2446   -2.0487 H   0  0  0  0  0  0  0  0  0  0  0  0
   -2.6082    2.6122   -0.2221 H   0  0  0  0  0  0  0  0  0  0  0  0
   -4.2159    0.8380    0.4063 H   0  0  0  0  0  0  0  0  0  0  0  0
   -3.2042   -2.5930    0.5241 H   0  0  0  0  0  0  0  0  0  0  0  0
  1  4  1  0  0  0  0
  1 22  1  0  0  0  0
  2 10  1  0  0  0  0
  2 25  1  0  0  0  0
  3  5  1  0  0  0  0
  3 20  1  0  0  0  0
  3 21  1  0  0  0  0
  4  5  1  0  0  0  0
  4  6  1  0  0  0  0
  4 13  1  6  0  0  0
  5  7  1  0  0  0  0
  5 14  1  1  0  0  0
  6  8  2  0  0  0  0
  6  9  1  0  0  0  0
  7 15  1  0  0  0  0
  7 16  1  0  0  0  0
  7 17  1  0  0  0  0
  8 10  1  0  0  0  0
  8 18  1  0  0  0  0
  9 11  2  0  0  0  0
  9 19  1  0  0  0  0
 10 12  2  0  0  0  0
 11 12  1  0  0  0  0
 11 23  1  0  0  0  0
 12 24  1  0  0  0  0
M  END
