DB00343
 OpenBabel07062211533D

 55 57  0  0  1  0  0  0  0  0999 V2000
    0.1593   -1.2093   -2.1691 S   0  0  0  0  0  0  0  0  0  0  0  0
    1.6688   -1.7068    1.5995 O   0  0  0  0  0  0  0  0  0  0  0  0
    0.2671    0.5288    1.5823 O   0  0  0  0  0  0  0  0  0  0  0  0
    5.9849    1.5787   -1.1958 O   0  0  0  0  0  0  0  0  0  0  0  0
    0.0386   -1.8879    3.2264 O   0  0  0  0  0  0  0  0  0  0  0  0
   -1.5143   -0.4176    0.4283 N   0  0  0  0  0  0  0  0  0  0  0  0
   -4.0054    2.3716    0.3316 N   0  0  0  0  0  0  0  0  0  0  0  0
    1.3173   -1.6170   -0.8058 C   0  0  2  0  0  0  0  0  0  0  0  0
    0.6693   -1.6132    0.5877 C   0  0  2  0  0  0  0  0  0  0  0  0
   -0.1883   -0.3869    0.8901 C   0  0  0  0  0  0  0  0  0  0  0  0
   -2.4437    0.5905    0.9385 C   0  0  0  0  0  0  0  0  0  0  0  0
   -2.0518   -1.4351   -0.4307 C   0  0  0  0  0  0  0  0  0  0  0  0
    2.5715   -0.7582   -0.9110 C   0  0  0  0  0  0  0  0  0  0  0  0
   -1.3565   -1.9315   -1.5535 C   0  0  0  0  0  0  0  0  0  0  0  0
   -3.0627    1.3937   -0.1959 C   0  0  0  0  0  0  0  0  0  0  0  0
   -3.3363   -1.9454   -0.1614 C   0  0  0  0  0  0  0  0  0  0  0  0
   -1.9369   -2.9363   -2.3465 C   0  0  0  0  0  0  0  0  0  0  0  0
    2.4863    0.6189   -0.7209 C   0  0  0  0  0  0  0  0  0  0  0  0
    3.7978   -1.3538   -1.1959 C   0  0  0  0  0  0  0  0  0  0  0  0
   -3.8974   -2.9498   -0.9518 C   0  0  0  0  0  0  0  0  0  0  0  0
   -3.1945   -3.4508   -2.0395 C   0  0  0  0  0  0  0  0  0  0  0  0
    3.6345    1.4052   -0.8164 C   0  0  0  0  0  0  0  0  0  0  0  0
    4.9460   -0.5674   -1.2912 C   0  0  0  0  0  0  0  0  0  0  0  0
   -3.3361    3.2868    1.2583 C   0  0  0  0  0  0  0  0  0  0  0  0
   -4.6336    3.1227   -0.7573 C   0  0  0  0  0  0  0  0  0  0  0  0
    4.8642    0.8121   -1.1015 C   0  0  0  0  0  0  0  0  0  0  0  0
    1.2125   -1.8420    2.8841 C   0  0  0  0  0  0  0  0  0  0  0  0
    2.3679   -1.9285    3.8346 C   0  0  0  0  0  0  0  0  0  0  0  0
    5.8307    2.9823   -0.9905 C   0  0  0  0  0  0  0  0  0  0  0  0
    1.6243   -2.6550   -0.9930 H   0  0  0  0  0  0  0  0  0  0  0  0
    0.0505   -2.5150    0.6868 H   0  0  0  0  0  0  0  0  0  0  0  0
   -3.1980    0.1135    1.5738 H   0  0  0  0  0  0  0  0  0  0  0  0
   -1.8835    1.2476    1.6086 H   0  0  0  0  0  0  0  0  0  0  0  0
   -3.5973    0.7309   -0.8854 H   0  0  0  0  0  0  0  0  0  0  0  0
   -2.2697    1.8784   -0.7821 H   0  0  0  0  0  0  0  0  0  0  0  0
   -3.9192   -1.6121    0.6920 H   0  0  0  0  0  0  0  0  0  0  0  0
   -1.4232   -3.3185   -3.2265 H   0  0  0  0  0  0  0  0  0  0  0  0
    1.5405    1.1144   -0.5315 H   0  0  0  0  0  0  0  0  0  0  0  0
    3.8784   -2.4269   -1.3457 H   0  0  0  0  0  0  0  0  0  0  0  0
   -4.8818   -3.3416   -0.7130 H   0  0  0  0  0  0  0  0  0  0  0  0
   -3.6306   -4.2282   -2.6595 H   0  0  0  0  0  0  0  0  0  0  0  0
    3.4988    2.4708   -0.6652 H   0  0  0  0  0  0  0  0  0  0  0  0
    5.9012   -1.0350   -1.5136 H   0  0  0  0  0  0  0  0  0  0  0  0
   -3.1086    2.8065    2.2149 H   0  0  0  0  0  0  0  0  0  0  0  0
   -4.0013    4.1198    1.5175 H   0  0  0  0  0  0  0  0  0  0  0  0
   -2.4194    3.7158    0.8373 H   0  0  0  0  0  0  0  0  0  0  0  0
   -5.3846    3.8168   -0.3639 H   0  0  0  0  0  0  0  0  0  0  0  0
   -3.9028    3.6965   -1.3387 H   0  0  0  0  0  0  0  0  0  0  0  0
   -5.1619    2.4456   -1.4379 H   0  0  0  0  0  0  0  0  0  0  0  0
    1.9908   -2.0307    4.8562 H   0  0  0  0  0  0  0  0  0  0  0  0
    2.9769   -2.8045    3.5978 H   0  0  0  0  0  0  0  0  0  0  0  0
    2.9656   -1.0156    3.7733 H   0  0  0  0  0  0  0  0  0  0  0  0
    6.8213    3.4358   -1.1001 H   0  0  0  0  0  0  0  0  0  0  0  0
    5.1869    3.4321   -1.7539 H   0  0  0  0  0  0  0  0  0  0  0  0
    5.4876    3.2051    0.0255 H   0  0  0  0  0  0  0  0  0  0  0  0
  1  8  1  0  0  0  0
  1 14  1  0  0  0  0
  2  9  1  0  0  0  0
  2 27  1  0  0  0  0
  3 10  2  0  0  0  0
  4 26  1  0  0  0  0
  4 29  1  0  0  0  0
  5 27  2  0  0  0  0
  6 10  1  0  0  0  0
  6 11  1  0  0  0  0
  6 12  1  0  0  0  0
  7 15  1  0  0  0  0
  7 24  1  0  0  0  0
  7 25  1  0  0  0  0
  8  9  1  1  0  0  0
  8 13  1  0  0  0  0
  8 30  1  0  0  0  0
  9 10  1  0  0  0  0
  9 31  1  1  0  0  0
 11 15  1  0  0  0  0
 11 32  1  0  0  0  0
 11 33  1  0  0  0  0
 12 14  2  0  0  0  0
 12 16  1  0  0  0  0
 13 18  2  0  0  0  0
 13 19  1  0  0  0  0
 14 17  1  0  0  0  0
 15 34  1  0  0  0  0
 15 35  1  0  0  0  0
 16 20  2  0  0  0  0
 16 36  1  0  0  0  0
 17 21  2  0  0  0  0
 17 37  1  0  0  0  0
 18 22  1  0  0  0  0
 18 38  1  0  0  0  0
 19 23  2  0  0  0  0
 19 39  1  0  0  0  0
 20 21  1  0  0  0  0
 20 40  1  0  0  0  0
 21 41  1  0  0  0  0
 22 26  2  0  0  0  0
 22 42  1  0  0  0  0
 23 26  1  0  0  0  0
 23 43  1  0  0  0  0
 24 44  1  0  0  0  0
 24 45  1  0  0  0  0
 24 46  1  0  0  0  0
 25 47  1  0  0  0  0
 25 48  1  0  0  0  0
 25 49  1  0  0  0  0
 27 28  1  0  0  0  0
 28 50  1  0  0  0  0
 28 51  1  0  0  0  0
 28 52  1  0  0  0  0
 29 53  1  0  0  0  0
 29 54  1  0  0  0  0
 29 55  1  0  0  0  0
M  END
