DB00878
 OpenBabel07062211533D

 64 65  0  0  0  0  0  0  0  0999 V2000
  -11.0928   -2.2127   -1.9792 Cl  0  0  0  0  0  0  0  0  0  0  0  0
   10.8882    2.3231    2.3549 Cl  0  0  0  0  0  0  0  0  0  0  0  0
   -3.2751    1.4479   -0.6717 N   0  0  0  0  0  0  0  0  0  0  0  0
    3.2858   -1.5523    0.5353 N   0  0  0  0  0  0  0  0  0  0  0  0
   -5.4704    1.3197   -0.2229 N   0  0  0  0  0  0  0  0  0  0  0  0
    5.4936   -1.3377    0.1936 N   0  0  0  0  0  0  0  0  0  0  0  0
   -4.5071    3.4781   -0.3631 N   0  0  0  0  0  0  0  0  0  0  0  0
    4.6034   -3.5311    0.2479 N   0  0  0  0  0  0  0  0  0  0  0  0
   -6.8201    0.1572    1.3668 N   0  0  0  0  0  0  0  0  0  0  0  0
    6.8699   -0.0625   -1.2827 N   0  0  0  0  0  0  0  0  0  0  0  0
   -5.0041    1.2989    2.1200 N   0  0  0  0  0  0  0  0  0  0  0  0
    5.1072   -1.1992   -2.1597 N   0  0  0  0  0  0  0  0  0  0  0  0
   -0.6036    0.3568    0.0234 C   0  0  0  0  0  0  0  0  0  0  0  0
    0.6155   -0.5293   -0.2429 C   0  0  0  0  0  0  0  0  0  0  0  0
   -0.8815    1.2891   -1.1594 C   0  0  0  0  0  0  0  0  0  0  0  0
    0.8689   -1.4893    0.9232 C   0  0  0  0  0  0  0  0  0  0  0  0
   -2.0564    2.2260   -0.9004 C   0  0  0  0  0  0  0  0  0  0  0  0
    2.0871   -2.3774    0.6941 C   0  0  0  0  0  0  0  0  0  0  0  0
   -4.3597    2.1100   -0.4386 C   0  0  0  0  0  0  0  0  0  0  0  0
    4.4009   -2.1703    0.3259 C   0  0  0  0  0  0  0  0  0  0  0  0
   -5.7385    0.9465    1.0021 C   0  0  0  0  0  0  0  0  0  0  0  0
    5.8039   -0.9054   -1.0014 C   0  0  0  0  0  0  0  0  0  0  0  0
   -7.8386   -0.4074    0.5696 C   0  0  0  0  0  0  0  0  0  0  0  0
    7.8276    0.5063   -0.4159 C   0  0  0  0  0  0  0  0  0  0  0  0
   -7.5692   -0.7748   -0.7489 C   0  0  0  0  0  0  0  0  0  0  0  0
   -9.1146   -0.5982    1.0998 C   0  0  0  0  0  0  0  0  0  0  0  0
    8.2189   -0.1769    0.7356 C   0  0  0  0  0  0  0  0  0  0  0  0
    8.3826    1.7517   -0.7103 C   0  0  0  0  0  0  0  0  0  0  0  0
   -8.5754   -1.3332   -1.5369 C   0  0  0  0  0  0  0  0  0  0  0  0
  -10.1211   -1.1566    0.3118 C   0  0  0  0  0  0  0  0  0  0  0  0
    9.1655    0.3848    1.5921 C   0  0  0  0  0  0  0  0  0  0  0  0
    9.3293    2.3135    0.1462 C   0  0  0  0  0  0  0  0  0  0  0  0
   -9.8513   -1.5242   -1.0065 C   0  0  0  0  0  0  0  0  0  0  0  0
    9.7207    1.6301    1.2974 C   0  0  0  0  0  0  0  0  0  0  0  0
   -1.4766   -0.2789    0.2135 H   0  0  0  0  0  0  0  0  0  0  0  0
   -0.4332    0.9521    0.9287 H   0  0  0  0  0  0  0  0  0  0  0  0
    1.4916    0.1089   -0.4070 H   0  0  0  0  0  0  0  0  0  0  0  0
    0.4588   -1.1064   -1.1623 H   0  0  0  0  0  0  0  0  0  0  0  0
    0.0107    1.8904   -1.3712 H   0  0  0  0  0  0  0  0  0  0  0  0
   -1.0851    0.6874   -2.0539 H   0  0  0  0  0  0  0  0  0  0  0  0
    1.0121   -0.9095    1.8436 H   0  0  0  0  0  0  0  0  0  0  0  0
   -0.0120   -2.1242    1.0758 H   0  0  0  0  0  0  0  0  0  0  0  0
   -2.1798    2.8772   -1.7741 H   0  0  0  0  0  0  0  0  0  0  0  0
   -1.8303    2.8518   -0.0284 H   0  0  0  0  0  0  0  0  0  0  0  0
    2.1965   -3.0450    1.5572 H   0  0  0  0  0  0  0  0  0  0  0  0
    1.9205   -2.9892   -0.2010 H   0  0  0  0  0  0  0  0  0  0  0  0
   -5.4118    3.8909   -0.1629 H   0  0  0  0  0  0  0  0  0  0  0  0
   -3.7321    4.1165   -0.5014 H   0  0  0  0  0  0  0  0  0  0  0  0
    3.8477   -4.1995    0.3458 H   0  0  0  0  0  0  0  0  0  0  0  0
    5.5316   -3.9078    0.0878 H   0  0  0  0  0  0  0  0  0  0  0  0
   -7.0092    0.0837    2.3632 H   0  0  0  0  0  0  0  0  0  0  0  0
    6.8976    0.3330   -2.2191 H   0  0  0  0  0  0  0  0  0  0  0  0
   -6.5808   -0.6755   -1.1857 H   0  0  0  0  0  0  0  0  0  0  0  0
   -9.3379   -0.3152    2.1253 H   0  0  0  0  0  0  0  0  0  0  0  0
    7.8370   -1.1628    0.9802 H   0  0  0  0  0  0  0  0  0  0  0  0
    8.0855    2.2950   -1.6037 H   0  0  0  0  0  0  0  0  0  0  0  0
   -8.3494   -1.6222   -2.5601 H   0  0  0  0  0  0  0  0  0  0  0  0
  -11.1107   -1.2992    0.7381 H   0  0  0  0  0  0  0  0  0  0  0  0
    9.4671   -0.1622    2.4818 H   0  0  0  0  0  0  0  0  0  0  0  0
    9.7532    3.2848   -0.0958 H   0  0  0  0  0  0  0  0  0  0  0  0
   -4.1770    1.8822    2.0564 H   0  0  0  0  0  0  0  0  0  0  0  0
   -5.2630    0.9718    3.0445 H   0  0  0  0  0  0  0  0  0  0  0  0
    4.2866   -1.7949   -2.1555 H   0  0  0  0  0  0  0  0  0  0  0  0
    5.4029   -0.8344   -3.0587 H   0  0  0  0  0  0  0  0  0  0  0  0
  1 33  1  0  0  0  0
  2 34  1  0  0  0  0
  3 17  1  0  0  0  0
  3 19  2  0  0  0  0
  4 18  1  0  0  0  0
  4 20  2  0  0  0  0
  5 19  1  0  0  0  0
  5 21  2  0  0  0  0
  6 20  1  0  0  0  0
  6 22  2  0  0  0  0
  7 19  1  0  0  0  0
  7 47  1  0  0  0  0
  7 48  1  0  0  0  0
  8 20  1  0  0  0  0
  8 49  1  0  0  0  0
  8 50  1  0  0  0  0
  9 21  1  0  0  0  0
  9 23  1  0  0  0  0
  9 51  1  0  0  0  0
 10 22  1  0  0  0  0
 10 24  1  0  0  0  0
 10 52  1  0  0  0  0
 11 21  1  0  0  0  0
 11 61  1  0  0  0  0
 11 62  1  0  0  0  0
 12 22  1  0  0  0  0
 12 63  1  0  0  0  0
 12 64  1  0  0  0  0
 13 14  1  0  0  0  0
 13 15  1  0  0  0  0
 13 35  1  0  0  0  0
 13 36  1  0  0  0  0
 14 16  1  0  0  0  0
 14 37  1  0  0  0  0
 14 38  1  0  0  0  0
 15 17  1  0  0  0  0
 15 39  1  0  0  0  0
 15 40  1  0  0  0  0
 16 18  1  0  0  0  0
 16 41  1  0  0  0  0
 16 42  1  0  0  0  0
 17 43  1  0  0  0  0
 17 44  1  0  0  0  0
 18 45  1  0  0  0  0
 18 46  1  0  0  0  0
 23 25  2  0  0  0  0
 23 26  1  0  0  0  0
 24 27  2  0  0  0  0
 24 28  1  0  0  0  0
 25 29  1  0  0  0  0
 25 53  1  0  0  0  0
 26 30  2  0  0  0  0
 26 54  1  0  0  0  0
 27 31  1  0  0  0  0
 27 55  1  0  0  0  0
 28 32  2  0  0  0  0
 28 56  1  0  0  0  0
 29 33  2  0  0  0  0
 29 57  1  0  0  0  0
 30 33  1  0  0  0  0
 30 58  1  0  0  0  0
 31 34  2  0  0  0  0
 31 59  1  0  0  0  0
 32 34  1  0  0  0  0
 32 60  1  0  0  0  0
M  END
