DB00765
 OpenBabel07062211533D

 27 27  0  0  1  0  0  0  0  0999 V2000
    0.9500   -1.5268    1.5914 O   0  0  0  0  0  0  0  0  0  0  0  0
    2.1109   -2.5240   -0.0715 O   0  0  0  0  0  0  0  0  0  0  0  0
   -4.5294    0.2053    0.5626 O   0  0  0  0  0  0  0  0  0  0  0  0
    3.2198   -0.0667   -0.7477 N   0  0  0  0  0  0  0  0  0  0  0  0
    1.8889   -0.0937   -0.1224 C   0  0  2  0  0  0  0  0  0  0  0  0
    0.8317    0.2659   -1.1942 C   0  0  0  0  0  0  0  0  0  0  0  0
   -0.6055    0.2495   -0.7229 C   0  0  0  0  0  0  0  0  0  0  0  0
    1.9243    0.9367    1.0172 C   0  0  0  0  0  0  0  0  0  0  0  0
    1.6805   -1.4998    0.4469 C   0  0  0  0  0  0  0  0  0  0  0  0
   -1.3351   -0.9229   -0.8182 C   0  0  0  0  0  0  0  0  0  0  0  0
   -1.1607    1.4080   -0.2069 C   0  0  0  0  0  0  0  0  0  0  0  0
   -2.6608   -0.9375   -0.3842 C   0  0  0  0  0  0  0  0  0  0  0  0
   -2.4863    1.3933    0.2272 C   0  0  0  0  0  0  0  0  0  0  0  0
   -3.2363    0.2207    0.1384 C   0  0  0  0  0  0  0  0  0  0  0  0
    1.0494    1.2558   -1.6206 H   0  0  0  0  0  0  0  0  0  0  0  0
    0.9182   -0.4308   -2.0411 H   0  0  0  0  0  0  0  0  0  0  0  0
    2.7103    0.6998    1.7458 H   0  0  0  0  0  0  0  0  0  0  0  0
    0.9854    0.9742    1.5790 H   0  0  0  0  0  0  0  0  0  0  0  0
    2.1188    1.9466    0.6368 H   0  0  0  0  0  0  0  0  0  0  0  0
    3.9406   -0.2234   -0.0439 H   0  0  0  0  0  0  0  0  0  0  0  0
    3.4019    0.8583   -1.1361 H   0  0  0  0  0  0  0  0  0  0  0  0
   -0.8975   -1.8299   -1.2250 H   0  0  0  0  0  0  0  0  0  0  0  0
   -0.5869    2.3273   -0.1369 H   0  0  0  0  0  0  0  0  0  0  0  0
   -3.2342   -1.8576   -0.4588 H   0  0  0  0  0  0  0  0  0  0  0  0
   -2.9292    2.2988    0.6328 H   0  0  0  0  0  0  0  0  0  0  0  0
    0.8263   -2.4410    1.9247 H   0  0  0  0  0  0  0  0  0  0  0  0
   -4.8948   -0.6860    0.4277 H   0  0  0  0  0  0  0  0  0  0  0  0
  1  9  1  0  0  0  0
  1 26  1  0  0  0  0
  2  9  2  0  0  0  0
  3 14  1  0  0  0  0
  3 27  1  0  0  0  0
  4  5  1  0  0  0  0
  4 20  1  0  0  0  0
  4 21  1  0  0  0  0
  5  6  1  0  0  0  0
  5  8  1  0  0  0  0
  5  9  1  1  0  0  0
  6  7  1  0  0  0  0
  6 15  1  0  0  0  0
  6 16  1  0  0  0  0
  7 10  2  0  0  0  0
  7 11  1  0  0  0  0
  8 17  1  0  0  0  0
  8 18  1  0  0  0  0
  8 19  1  0  0  0  0
 10 12  1  0  0  0  0
 10 22  1  0  0  0  0
 11 13  2  0  0  0  0
 11 23  1  0  0  0  0
 12 14  2  0  0  0  0
 12 24  1  0  0  0  0
 13 14  1  0  0  0  0
 13 25  1  0  0  0  0
M  END
