DB00726
 OpenBabel07062211533D

 48 50  0  0  1  0  0  0  0  0999 V2000
   -0.7915   -0.0454   -0.8896 N   0  0  0  0  0  0  0  0  0  0  0  0
    2.8420    1.3545    1.0056 N   0  0  0  0  0  0  0  0  0  0  0  0
    1.4893    0.9535   -1.0434 C   0  0  2  0  0  0  0  0  0  0  0  0
    0.0773    0.8679   -1.6495 C   0  0  0  0  0  0  0  0  0  0  0  0
   -0.3588   -1.3913   -0.7352 C   0  0  0  0  0  0  0  0  0  0  0  0
   -2.0417    0.5205   -0.5289 C   0  0  0  0  0  0  0  0  0  0  0  0
    1.5008    1.3936    0.4331 C   0  0  0  0  0  0  0  0  0  0  0  0
   -1.8096   -1.9184    1.3703 C   0  0  0  0  0  0  0  0  0  0  0  0
   -1.8525   -0.4573    1.7866 C   0  0  0  0  0  0  0  0  0  0  0  0
   -0.8357   -2.2720    0.2662 C   0  0  0  0  0  0  0  0  0  0  0  0
   -2.5883    0.3460    0.7533 C   0  0  0  0  0  0  0  0  0  0  0  0
    2.3930    1.8763   -1.8689 C   0  0  0  0  0  0  0  0  0  0  0  0
    0.5762   -1.9317   -1.6586 C   0  0  0  0  0  0  0  0  0  0  0  0
   -2.7763    1.2926   -1.4553 C   0  0  0  0  0  0  0  0  0  0  0  0
   -0.3980   -3.6200    0.2822 C   0  0  0  0  0  0  0  0  0  0  0  0
   -3.8240    0.9302    1.0846 C   0  0  0  0  0  0  0  0  0  0  0  0
    1.0111   -3.2586   -1.6129 C   0  0  0  0  0  0  0  0  0  0  0  0
   -4.0035    1.8678   -1.1204 C   0  0  0  0  0  0  0  0  0  0  0  0
    0.5181   -4.1080   -0.6415 C   0  0  0  0  0  0  0  0  0  0  0  0
   -4.5274    1.6871    0.1520 C   0  0  0  0  0  0  0  0  0  0  0  0
    3.3784   -0.0067    0.9674 C   0  0  0  0  0  0  0  0  0  0  0  0
    2.8298    1.8578    2.3800 C   0  0  0  0  0  0  0  0  0  0  0  0
    1.9544   -0.0267   -1.1181 H   0  0  0  0  0  0  0  0  0  0  0  0
   -0.3095    1.8967   -1.6354 H   0  0  0  0  0  0  0  0  0  0  0  0
    0.1050    0.5880   -2.7104 H   0  0  0  0  0  0  0  0  0  0  0  0
    0.8367    0.7595    1.0232 H   0  0  0  0  0  0  0  0  0  0  0  0
    1.1013    2.4145    0.4931 H   0  0  0  0  0  0  0  0  0  0  0  0
   -2.8076   -2.2678    1.0738 H   0  0  0  0  0  0  0  0  0  0  0  0
   -1.5282   -2.4872    2.2672 H   0  0  0  0  0  0  0  0  0  0  0  0
   -0.8564   -0.0474    1.9696 H   0  0  0  0  0  0  0  0  0  0  0  0
   -2.3808   -0.3873    2.7463 H   0  0  0  0  0  0  0  0  0  0  0  0
    2.3853    1.5760   -2.9225 H   0  0  0  0  0  0  0  0  0  0  0  0
    3.4343    1.8443   -1.5334 H   0  0  0  0  0  0  0  0  0  0  0  0
    2.0495    2.9150   -1.8158 H   0  0  0  0  0  0  0  0  0  0  0  0
    0.9521   -1.3528   -2.4990 H   0  0  0  0  0  0  0  0  0  0  0  0
   -2.4099    1.4366   -2.4701 H   0  0  0  0  0  0  0  0  0  0  0  0
   -0.7756   -4.3041    1.0406 H   0  0  0  0  0  0  0  0  0  0  0  0
   -4.2471    0.7963    2.0774 H   0  0  0  0  0  0  0  0  0  0  0  0
    1.7166   -3.6247   -2.3528 H   0  0  0  0  0  0  0  0  0  0  0  0
   -4.5482    2.4515   -1.8565 H   0  0  0  0  0  0  0  0  0  0  0  0
    0.8387   -5.1442   -0.6011 H   0  0  0  0  0  0  0  0  0  0  0  0
   -5.4815    2.1315    0.4185 H   0  0  0  0  0  0  0  0  0  0  0  0
    3.6673   -0.3096   -0.0432 H   0  0  0  0  0  0  0  0  0  0  0  0
    2.6819   -0.7450    1.3818 H   0  0  0  0  0  0  0  0  0  0  0  0
    4.3062   -0.0662    1.5498 H   0  0  0  0  0  0  0  0  0  0  0  0
    2.4562    2.8874    2.4100 H   0  0  0  0  0  0  0  0  0  0  0  0
    3.8454    1.8830    2.7907 H   0  0  0  0  0  0  0  0  0  0  0  0
    2.2052    1.2443    3.0395 H   0  0  0  0  0  0  0  0  0  0  0  0
  1  4  1  0  0  0  0
  1  5  1  0  0  0  0
  1  6  1  0  0  0  0
  2  7  1  0  0  0  0
  2 21  1  0  0  0  0
  2 22  1  0  0  0  0
  3  4  1  0  0  0  0
  3  7  1  0  0  0  0
  3 12  1  0  0  0  0
  3 23  1  6  0  0  0
  4 24  1  0  0  0  0
  4 25  1  0  0  0  0
  5 10  2  0  0  0  0
  5 13  1  0  0  0  0
  6 11  2  0  0  0  0
  6 14  1  0  0  0  0
  7 26  1  0  0  0  0
  7 27  1  0  0  0  0
  8  9  1  0  0  0  0
  8 10  1  0  0  0  0
  8 28  1  0  0  0  0
  8 29  1  0  0  0  0
  9 11  1  0  0  0  0
  9 30  1  0  0  0  0
  9 31  1  0  0  0  0
 10 15  1  0  0  0  0
 11 16  1  0  0  0  0
 12 32  1  0  0  0  0
 12 33  1  0  0  0  0
 12 34  1  0  0  0  0
 13 17  2  0  0  0  0
 13 35  1  0  0  0  0
 14 18  2  0  0  0  0
 14 36  1  0  0  0  0
 15 19  2  0  0  0  0
 15 37  1  0  0  0  0
 16 20  2  0  0  0  0
 16 38  1  0  0  0  0
 17 19  1  0  0  0  0
 17 39  1  0  0  0  0
 18 20  1  0  0  0  0
 18 40  1  0  0  0  0
 19 41  1  0  0  0  0
 20 42  1  0  0  0  0
 21 43  1  0  0  0  0
 21 44  1  0  0  0  0
 21 45  1  0  0  0  0
 22 46  1  0  0  0  0
 22 47  1  0  0  0  0
 22 48  1  0  0  0  0
M  END
