DB00947
 OpenBabel07062211533D

 88 91  0  0  1  0  0  0  0  0999 V2000
    8.5382   -0.0104    1.2086 S   0  0  2  0  0  0  0  0  0  0  0  0
   13.8488   -0.7555    0.4210 F   0  0  0  0  0  0  0  0  0  0  0  0
   13.7469    1.4192    0.5351 F   0  0  0  0  0  0  0  0  0  0  0  0
   14.4465    1.5906   -2.1341 F   0  0  0  0  0  0  0  0  0  0  0  0
   14.5520   -0.5865   -2.2437 F   0  0  0  0  0  0  0  0  0  0  0  0
   15.8721    0.5033   -0.8914 F   0  0  0  0  0  0  0  0  0  0  0  0
   -7.7457    4.5023   -0.7572 O   0  0  0  0  0  0  0  0  0  0  0  0
   -5.9572   -6.3070   -0.1706 O   0  0  0  0  0  0  0  0  0  0  0  0
    8.7038   -1.3804    1.7894 O   0  0  0  0  0  0  0  0  0  0  0  0
   -5.6393    1.6252    0.0090 C   0  0  2  0  0  0  0  0  0  0  0  0
   -6.9975    2.1670   -0.4847 C   0  0  2  0  0  0  0  0  0  0  0  0
   -5.6994    0.1329    0.3450 C   0  0  1  0  0  0  0  0  0  0  0  0
   -6.0620   -0.6522   -0.9530 C   0  0  2  0  0  0  0  0  0  0  0  0
   -7.3621    1.4295   -1.7791 C   0  0  0  0  0  0  0  0  0  0  0  0
   -6.6200    3.6506   -0.6664 C   0  0  2  0  0  0  0  0  0  0  0  0
   -5.2333    2.6207    1.0916 C   0  0  0  0  0  0  0  0  0  0  0  0
   -4.4182   -0.4238    0.9984 C   0  0  1  0  0  0  0  0  0  0  0  0
   -7.3693   -0.0997   -1.5866 C   0  0  0  0  0  0  0  0  0  0  0  0
   -5.7595    3.9707    0.5712 C   0  0  0  0  0  0  0  0  0  0  0  0
   -8.1638    2.0304    0.5272 C   0  0  0  0  0  0  0  0  0  0  0  0
   -6.0577   -2.1599   -0.7172 C   0  0  0  0  0  0  0  0  0  0  0  0
   -4.6847   -1.8749    1.4272 C   0  0  0  0  0  0  0  0  0  0  0  0
   -3.1569   -0.3258    0.1324 C   0  0  0  0  0  0  0  0  0  0  0  0
   -5.3733   -2.7213    0.3827 C   0  0  0  0  0  0  0  0  0  0  0  0
   -1.9008   -0.2977    0.9962 C   0  0  0  0  0  0  0  0  0  0  0  0
   -6.6583   -3.0340   -1.6415 C   0  0  0  0  0  0  0  0  0  0  0  0
   -5.3603   -4.1163    0.5610 C   0  0  0  0  0  0  0  0  0  0  0  0
   -0.6477   -0.1701    0.1276 C   0  0  0  0  0  0  0  0  0  0  0  0
   -6.6280   -4.4180   -1.4583 C   0  0  0  0  0  0  0  0  0  0  0  0
   -5.9842   -4.9595   -0.3537 C   0  0  0  0  0  0  0  0  0  0  0  0
    0.6576   -0.2249    0.9274 C   0  0  0  0  0  0  0  0  0  0  0  0
    1.9477   -0.1572    0.1029 C   0  0  0  0  0  0  0  0  0  0  0  0
    3.2161   -0.2389    0.9557 C   0  0  0  0  0  0  0  0  0  0  0  0
    4.5052   -0.1834    0.1283 C   0  0  0  0  0  0  0  0  0  0  0  0
    5.7747   -0.1816    0.9881 C   0  0  0  0  0  0  0  0  0  0  0  0
    7.0506   -0.0468    0.1631 C   0  0  0  0  0  0  0  0  0  0  0  0
    9.7074    0.1499   -0.1612 C   0  0  0  0  0  0  0  0  0  0  0  0
   11.1517    0.2171    0.3233 C   0  0  0  0  0  0  0  0  0  0  0  0
   12.1643    0.3243   -0.8242 C   0  0  0  0  0  0  0  0  0  0  0  0
   13.5971    0.3634   -0.3047 C   0  0  0  0  0  0  0  0  0  0  0  0
   14.6232    0.4687   -1.4045 C   0  0  0  0  0  0  0  0  0  0  0  0
   -4.9158    1.7518   -0.8113 H   0  0  0  0  0  0  0  0  0  0  0  0
   -6.5022   -0.0246    1.0781 H   0  0  0  0  0  0  0  0  0  0  0  0
   -5.2639   -0.4739   -1.6891 H   0  0  0  0  0  0  0  0  0  0  0  0
   -8.3401    1.7586   -2.1505 H   0  0  0  0  0  0  0  0  0  0  0  0
   -6.6366    1.6742   -2.5658 H   0  0  0  0  0  0  0  0  0  0  0  0
   -6.0200    3.7871   -1.5750 H   0  0  0  0  0  0  0  0  0  0  0  0
   -4.1489    2.6462    1.2393 H   0  0  0  0  0  0  0  0  0  0  0  0
   -5.6938    2.3771    2.0554 H   0  0  0  0  0  0  0  0  0  0  0  0
   -4.2417    0.1522    1.9170 H   0  0  0  0  0  0  0  0  0  0  0  0
   -7.5307   -0.5445   -2.5751 H   0  0  0  0  0  0  0  0  0  0  0  0
   -8.2307   -0.3971   -0.9763 H   0  0  0  0  0  0  0  0  0  0  0  0
   -6.3310    4.4911    1.3480 H   0  0  0  0  0  0  0  0  0  0  0  0
   -4.9303    4.6299    0.2909 H   0  0  0  0  0  0  0  0  0  0  0  0
   -8.3813    0.9911    0.7865 H   0  0  0  0  0  0  0  0  0  0  0  0
   -9.0869    2.4490    0.1096 H   0  0  0  0  0  0  0  0  0  0  0  0
   -7.9678    2.5586    1.4655 H   0  0  0  0  0  0  0  0  0  0  0  0
   -3.7520   -2.3590    1.7382 H   0  0  0  0  0  0  0  0  0  0  0  0
   -5.3393   -1.8612    2.3095 H   0  0  0  0  0  0  0  0  0  0  0  0
   -3.1656    0.5921   -0.4630 H   0  0  0  0  0  0  0  0  0  0  0  0
   -3.1023   -1.1571   -0.5805 H   0  0  0  0  0  0  0  0  0  0  0  0
   -7.4180    5.4174   -0.7818 H   0  0  0  0  0  0  0  0  0  0  0  0
   -1.8287   -1.2105    1.5973 H   0  0  0  0  0  0  0  0  0  0  0  0
   -1.9413    0.5472    1.6942 H   0  0  0  0  0  0  0  0  0  0  0  0
   -7.1549   -2.6557   -2.5299 H   0  0  0  0  0  0  0  0  0  0  0  0
   -4.8516   -4.5402    1.4249 H   0  0  0  0  0  0  0  0  0  0  0  0
   -0.6845    0.7723   -0.4326 H   0  0  0  0  0  0  0  0  0  0  0  0
   -0.6376   -0.9786   -0.6141 H   0  0  0  0  0  0  0  0  0  0  0  0
   -7.1075   -5.0658   -2.1872 H   0  0  0  0  0  0  0  0  0  0  0  0
    0.6590    0.5989    1.6526 H   0  0  0  0  0  0  0  0  0  0  0  0
    0.6690   -1.1524    1.5142 H   0  0  0  0  0  0  0  0  0  0  0  0
    1.9495   -0.9774   -0.6253 H   0  0  0  0  0  0  0  0  0  0  0  0
    1.9558    0.7768   -0.4717 H   0  0  0  0  0  0  0  0  0  0  0  0
   -5.4665   -6.5050    0.6455 H   0  0  0  0  0  0  0  0  0  0  0  0
    3.2038   -1.1682    1.5384 H   0  0  0  0  0  0  0  0  0  0  0  0
    3.2149    0.5876    1.6769 H   0  0  0  0  0  0  0  0  0  0  0  0
    4.5331   -1.0380   -0.5587 H   0  0  0  0  0  0  0  0  0  0  0  0
    4.4926    0.7221   -0.4910 H   0  0  0  0  0  0  0  0  0  0  0  0
    5.8100   -1.1061    1.5781 H   0  0  0  0  0  0  0  0  0  0  0  0
    5.7193    0.6443    1.7090 H   0  0  0  0  0  0  0  0  0  0  0  0
    7.1405   -0.8858   -0.5349 H   0  0  0  0  0  0  0  0  0  0  0  0
    7.0257    0.8834   -0.4140 H   0  0  0  0  0  0  0  0  0  0  0  0
    9.4593    1.0615   -0.7148 H   0  0  0  0  0  0  0  0  0  0  0  0
    9.5742   -0.7064   -0.8306 H   0  0  0  0  0  0  0  0  0  0  0  0
   11.3776   -0.6760    0.9199 H   0  0  0  0  0  0  0  0  0  0  0  0
   11.2710    1.0765    0.9955 H   0  0  0  0  0  0  0  0  0  0  0  0
   12.0377   -0.5362   -1.4916 H   0  0  0  0  0  0  0  0  0  0  0  0
   11.9537    1.2330   -1.4000 H   0  0  0  0  0  0  0  0  0  0  0  0
  1  9  2  6  0  0  0
  1 36  1  0  0  0  0
  1 37  1  0  0  0  0
  2 40  1  0  0  0  0
  3 40  1  0  0  0  0
  4 41  1  0  0  0  0
  5 41  1  0  0  0  0
  6 41  1  0  0  0  0
  7 15  1  0  0  0  0
  7 62  1  0  0  0  0
  8 30  1  0  0  0  0
  8 74  1  0  0  0  0
 10 11  1  6  0  0  0
 10 16  1  0  0  0  0
 10 42  1  0  0  0  0
 11 14  1  0  0  0  0
 11 15  1  6  0  0  0
 11 20  1  0  0  0  0
 12 10  1  6  0  0  0
 12 43  1  0  0  0  0
 13 12  1  1  0  0  0
 13 18  1  0  0  0  0
 13 21  1  0  0  0  0
 13 44  1  0  0  0  0
 14 18  1  0  0  0  0
 14 45  1  0  0  0  0
 14 46  1  0  0  0  0
 15 19  1  0  0  0  0
 15 47  1  6  0  0  0
 16 19  1  0  0  0  0
 16 48  1  0  0  0  0
 16 49  1  0  0  0  0
 17 12  1  6  0  0  0
 17 22  1  0  0  0  0
 17 23  1  0  0  0  0
 17 50  1  0  0  0  0
 18 51  1  0  0  0  0
 18 52  1  0  0  0  0
 19 53  1  0  0  0  0
 19 54  1  0  0  0  0
 20 55  1  0  0  0  0
 20 56  1  0  0  0  0
 20 57  1  0  0  0  0
 21 24  2  0  0  0  0
 21 26  1  0  0  0  0
 22 24  1  0  0  0  0
 22 58  1  0  0  0  0
 22 59  1  0  0  0  0
 23 25  1  0  0  0  0
 23 60  1  0  0  0  0
 23 61  1  0  0  0  0
 24 27  1  0  0  0  0
 25 28  1  0  0  0  0
 25 63  1  0  0  0  0
 25 64  1  0  0  0  0
 26 29  2  0  0  0  0
 26 65  1  0  0  0  0
 27 30  2  0  0  0  0
 27 66  1  0  0  0  0
 28 31  1  0  0  0  0
 28 67  1  0  0  0  0
 28 68  1  0  0  0  0
 29 30  1  0  0  0  0
 29 69  1  0  0  0  0
 31 32  1  0  0  0  0
 31 70  1  0  0  0  0
 31 71  1  0  0  0  0
 32 33  1  0  0  0  0
 32 72  1  0  0  0  0
 32 73  1  0  0  0  0
 33 34  1  0  0  0  0
 33 75  1  0  0  0  0
 33 76  1  0  0  0  0
 34 35  1  0  0  0  0
 34 77  1  0  0  0  0
 34 78  1  0  0  0  0
 35 36  1  0  0  0  0
 35 79  1  0  0  0  0
 35 80  1  0  0  0  0
 36 81  1  0  0  0  0
 36 82  1  0  0  0  0
 37 38  1  0  0  0  0
 37 83  1  0  0  0  0
 37 84  1  0  0  0  0
 38 39  1  0  0  0  0
 38 85  1  0  0  0  0
 38 86  1  0  0  0  0
 39 40  1  0  0  0  0
 39 87  1  0  0  0  0
 39 88  1  0  0  0  0
 40 41  1  0  0  0  0
M  END
