DB00739
 OpenBabel07062211533D

 50 53  0  0  1  0  0  0  0  0999 V2000
    1.2947    0.0890   -1.3245 S   0  0  0  0  0  0  0  0  0  0  0  0
    1.4810   -1.5877    2.7456 O   0  0  0  0  0  0  0  0  0  0  0  0
   -0.3099    0.3486    1.6077 O   0  0  0  0  0  0  0  0  0  0  0  0
    4.9278    1.4183    1.4210 O   0  0  0  0  0  0  0  0  0  0  0  0
    5.0075   -0.8598    1.4409 O   0  0  0  0  0  0  0  0  0  0  0  0
    2.4774   -1.0767    0.6680 N   0  0  0  0  0  0  0  0  0  0  0  0
   -0.6479   -1.6052    0.3497 N   0  0  0  0  0  0  0  0  0  0  0  0
   -2.8172   -1.2285   -0.3046 N   0  0  0  0  0  0  0  0  0  0  0  0
    1.7668   -1.4971   -0.5432 C   0  0  1  0  0  0  0  0  0  0  0  0
    0.7252   -2.1531    0.3737 C   0  0  1  0  0  0  0  0  0  0  0  0
    2.9924    0.2752    0.7477 C   0  0  2  0  0  0  0  0  0  0  0  0
    2.8152    0.9215   -0.6432 C   0  0  0  0  0  0  0  0  0  0  0  0
    1.5872   -1.6324    1.5409 C   0  0  0  0  0  0  0  0  0  0  0  0
   -1.7733   -2.2636   -0.2785 C   0  0  0  0  0  0  0  0  0  0  0  0
   -1.0209   -0.4185    0.9750 C   0  0  0  0  0  0  0  0  0  0  0  0
   -2.5074   -0.2599    0.7540 C   0  0  1  0  0  0  0  0  0  0  0  0
    3.9721    0.6626   -1.6179 C   0  0  0  0  0  0  0  0  0  0  0  0
    2.5513    2.4241   -0.5304 C   0  0  0  0  0  0  0  0  0  0  0  0
    4.4033    0.1823    1.2345 C   0  0  0  0  0  0  0  0  0  0  0  0
   -1.4792   -2.6745   -1.7231 C   0  0  0  0  0  0  0  0  0  0  0  0
   -2.2434   -3.4701    0.5444 C   0  0  0  0  0  0  0  0  0  0  0  0
   -2.9116    1.1448    0.3829 C   0  0  0  0  0  0  0  0  0  0  0  0
   -3.2446    2.0655    1.3795 C   0  0  0  0  0  0  0  0  0  0  0  0
   -2.9544    1.5315   -0.9589 C   0  0  0  0  0  0  0  0  0  0  0  0
   -3.6182    3.3649    1.0364 C   0  0  0  0  0  0  0  0  0  0  0  0
   -3.3280    2.8310   -1.3019 C   0  0  0  0  0  0  0  0  0  0  0  0
   -3.6600    3.7476   -0.3041 C   0  0  0  0  0  0  0  0  0  0  0  0
    2.3540   -2.1782   -1.1657 H   0  0  0  0  0  0  0  0  0  0  0  0
    0.7294   -3.2485    0.3273 H   0  0  0  0  0  0  0  0  0  0  0  0
    2.4112    0.8010    1.5167 H   0  0  0  0  0  0  0  0  0  0  0  0
   -3.0142   -0.5716    1.6764 H   0  0  0  0  0  0  0  0  0  0  0  0
   -3.7484   -1.6210   -0.1788 H   0  0  0  0  0  0  0  0  0  0  0  0
    4.8824    1.1836   -1.3008 H   0  0  0  0  0  0  0  0  0  0  0  0
    4.2174   -0.4025   -1.6971 H   0  0  0  0  0  0  0  0  0  0  0  0
    3.7365    1.0278   -2.6247 H   0  0  0  0  0  0  0  0  0  0  0  0
    2.3322    2.8680   -1.5088 H   0  0  0  0  0  0  0  0  0  0  0  0
    1.7041    2.6402    0.1309 H   0  0  0  0  0  0  0  0  0  0  0  0
    3.4229    2.9499   -0.1264 H   0  0  0  0  0  0  0  0  0  0  0  0
   -1.1582   -1.8193   -2.3289 H   0  0  0  0  0  0  0  0  0  0  0  0
   -0.6800   -3.4228   -1.7692 H   0  0  0  0  0  0  0  0  0  0  0  0
   -2.3649   -3.1078   -2.2023 H   0  0  0  0  0  0  0  0  0  0  0  0
   -3.1448   -3.9213    0.1142 H   0  0  0  0  0  0  0  0  0  0  0  0
   -1.4706   -4.2459    0.5825 H   0  0  0  0  0  0  0  0  0  0  0  0
   -2.4685   -3.1900    1.5803 H   0  0  0  0  0  0  0  0  0  0  0  0
    5.8545    1.3788    1.7399 H   0  0  0  0  0  0  0  0  0  0  0  0
   -3.2141    1.7802    2.4277 H   0  0  0  0  0  0  0  0  0  0  0  0
   -2.6851    0.8503   -1.7613 H   0  0  0  0  0  0  0  0  0  0  0  0
   -3.8759    4.0789    1.8132 H   0  0  0  0  0  0  0  0  0  0  0  0
   -3.3562    3.1307   -2.3453 H   0  0  0  0  0  0  0  0  0  0  0  0
   -3.9497    4.7597   -0.5712 H   0  0  0  0  0  0  0  0  0  0  0  0
  1  9  1  0  0  0  0
  1 12  1  0  0  0  0
  2 13  2  0  0  0  0
  3 15  2  0  0  0  0
  4 19  1  0  0  0  0
  4 45  1  0  0  0  0
  5 19  2  0  0  0  0
  6  9  1  0  0  0  0
  6 11  1  0  0  0  0
  6 13  1  0  0  0  0
  7 10  1  0  0  0  0
  7 14  1  0  0  0  0
  7 15  1  0  0  0  0
  8 14  1  0  0  0  0
  8 16  1  0  0  0  0
  8 32  1  0  0  0  0
  9 10  1  1  0  0  0
  9 28  1  0  0  0  0
 10 13  1  0  0  0  0
 10 29  1  6  0  0  0
 11 12  1  0  0  0  0
 11 19  1  0  0  0  0
 11 30  1  1  0  0  0
 12 17  1  0  0  0  0
 12 18  1  0  0  0  0
 14 20  1  0  0  0  0
 14 21  1  0  0  0  0
 15 16  1  0  0  0  0
 16 22  1  0  0  0  0
 16 31  1  1  0  0  0
 17 33  1  0  0  0  0
 17 34  1  0  0  0  0
 17 35  1  0  0  0  0
 18 36  1  0  0  0  0
 18 37  1  0  0  0  0
 18 38  1  0  0  0  0
 20 39  1  0  0  0  0
 20 40  1  0  0  0  0
 20 41  1  0  0  0  0
 21 42  1  0  0  0  0
 21 43  1  0  0  0  0
 21 44  1  0  0  0  0
 22 23  2  0  0  0  0
 22 24  1  0  0  0  0
 23 25  1  0  0  0  0
 23 46  1  0  0  0  0
 24 26  2  0  0  0  0
 24 47  1  0  0  0  0
 25 27  2  0  0  0  0
 25 48  1  0  0  0  0
 26 27  1  0  0  0  0
 26 49  1  0  0  0  0
 27 50  1  0  0  0  0
M  END
