DB00835
 OpenBabel07062211533D

 38 39  0  0  1  0  0  0  0  0999 V2000
   -6.3741    1.3992    0.3599 Br  0  0  0  0  0  0  0  0  0  0  0  0
    2.4938    1.0747    0.2539 N   0  0  0  0  0  0  0  0  0  0  0  0
   -0.5410   -1.9381   -1.1064 N   0  0  0  0  0  0  0  0  0  0  0  0
   -0.3338    0.1681    0.0707 C   0  0  1  0  0  0  0  0  0  0  0  0
    0.4017    0.9823   -1.0259 C   0  0  0  0  0  0  0  0  0  0  0  0
    1.9123    0.7219   -1.0371 C   0  0  0  0  0  0  0  0  0  0  0  0
   -1.8276    0.4711    0.1418 C   0  0  0  0  0  0  0  0  0  0  0  0
   -0.0784   -1.3318   -0.0065 C   0  0  0  0  0  0  0  0  0  0  0  0
   -2.4700    0.3581    1.3558 C   0  0  0  0  0  0  0  0  0  0  0  0
   -2.4835    0.8486   -1.0097 C   0  0  0  0  0  0  0  0  0  0  0  0
    0.5885   -1.9297    1.0311 C   0  0  0  0  0  0  0  0  0  0  0  0
    2.3044    2.4990    0.5316 C   0  0  0  0  0  0  0  0  0  0  0  0
    3.9171    0.7350    0.2873 C   0  0  0  0  0  0  0  0  0  0  0  0
   -3.8353    0.6362    1.4212 C   0  0  0  0  0  0  0  0  0  0  0  0
   -3.8488    1.1266   -0.9443 C   0  0  0  0  0  0  0  0  0  0  0  0
    0.8055   -3.2993    0.9299 C   0  0  0  0  0  0  0  0  0  0  0  0
   -4.5246    1.0202    0.2711 C   0  0  0  0  0  0  0  0  0  0  0  0
   -0.3115   -3.2689   -1.1697 C   0  0  0  0  0  0  0  0  0  0  0  0
    0.3502   -3.9893   -0.1882 C   0  0  0  0  0  0  0  0  0  0  0  0
    0.0669    0.5323    1.0280 H   0  0  0  0  0  0  0  0  0  0  0  0
    0.0540    0.6742   -2.0206 H   0  0  0  0  0  0  0  0  0  0  0  0
    0.1690    2.0509   -0.9508 H   0  0  0  0  0  0  0  0  0  0  0  0
    2.3697    1.3024   -1.8494 H   0  0  0  0  0  0  0  0  0  0  0  0
    2.1037   -0.3329   -1.2676 H   0  0  0  0  0  0  0  0  0  0  0  0
   -1.9418    0.0595    2.2562 H   0  0  0  0  0  0  0  0  0  0  0  0
   -2.0049    0.9246   -1.9782 H   0  0  0  0  0  0  0  0  0  0  0  0
    0.9398   -1.3840    1.8989 H   0  0  0  0  0  0  0  0  0  0  0  0
    1.2588    2.7460    0.7380 H   0  0  0  0  0  0  0  0  0  0  0  0
    2.6685    3.1359   -0.2829 H   0  0  0  0  0  0  0  0  0  0  0  0
    2.8465    2.7828    1.4420 H   0  0  0  0  0  0  0  0  0  0  0  0
    4.0606   -0.3377    0.1155 H   0  0  0  0  0  0  0  0  0  0  0  0
    4.3423    0.9520    1.2735 H   0  0  0  0  0  0  0  0  0  0  0  0
    4.4915    1.2859   -0.4664 H   0  0  0  0  0  0  0  0  0  0  0  0
   -4.3470    0.5487    2.3762 H   0  0  0  0  0  0  0  0  0  0  0  0
   -4.3727    1.4207   -1.8503 H   0  0  0  0  0  0  0  0  0  0  0  0
    1.3287   -3.8283    1.7208 H   0  0  0  0  0  0  0  0  0  0  0  0
   -0.6865   -3.7600   -2.0615 H   0  0  0  0  0  0  0  0  0  0  0  0
    0.5082   -5.0569   -0.2882 H   0  0  0  0  0  0  0  0  0  0  0  0
  1 17  1  0  0  0  0
  2  6  1  0  0  0  0
  2 12  1  0  0  0  0
  2 13  1  0  0  0  0
  3  8  2  0  0  0  0
  3 18  1  0  0  0  0
  4  5  1  0  0  0  0
  4  7  1  0  0  0  0
  4  8  1  0  0  0  0
  4 20  1  1  0  0  0
  5  6  1  0  0  0  0
  5 21  1  0  0  0  0
  5 22  1  0  0  0  0
  6 23  1  0  0  0  0
  6 24  1  0  0  0  0
  7  9  2  0  0  0  0
  7 10  1  0  0  0  0
  8 11  1  0  0  0  0
  9 14  1  0  0  0  0
  9 25  1  0  0  0  0
 10 15  2  0  0  0  0
 10 26  1  0  0  0  0
 11 16  2  0  0  0  0
 11 27  1  0  0  0  0
 12 28  1  0  0  0  0
 12 29  1  0  0  0  0
 12 30  1  0  0  0  0
 13 31  1  0  0  0  0
 13 32  1  0  0  0  0
 13 33  1  0  0  0  0
 14 17  2  0  0  0  0
 14 34  1  0  0  0  0
 15 17  1  0  0  0  0
 15 35  1  0  0  0  0
 16 19  1  0  0  0  0
 16 36  1  0  0  0  0
 18 19  2  0  0  0  0
 18 37  1  0  0  0  0
 19 38  1  0  0  0  0
M  END
