DB00469
 OpenBabel07062211533D

 33 35  0  0  0  0  0  0  0  0999 V2000
    2.9151   -1.4001    0.4873 S   0  0  0  0  0  0  0  0  0  0  0  0
    3.9508    2.5471   -0.3486 S   0  0  0  0  0  0  0  0  0  0  0  0
    3.7904   -2.3437   -0.1786 O   0  0  0  0  0  0  0  0  0  0  0  0
    2.6796   -1.4448    1.9160 O   0  0  0  0  0  0  0  0  0  0  0  0
    1.0351    2.4100   -0.7625 O   0  0  0  0  0  0  0  0  0  0  0  0
   -0.9981   -0.0357   -2.0190 O   0  0  0  0  0  0  0  0  0  0  0  0
    1.4274   -1.2950   -0.3522 N   0  0  0  0  0  0  0  0  0  0  0  0
   -1.3920    0.1938    0.2914 N   0  0  0  0  0  0  0  0  0  0  0  0
   -3.3703    0.4102    1.5950 N   0  0  0  0  0  0  0  0  0  0  0  0
    3.6891    0.1014    0.2556 C   0  0  0  0  0  0  0  0  0  0  0  0
    0.8158    0.0084   -0.5486 C   0  0  0  0  0  0  0  0  0  0  0  0
    2.9402    1.1576   -0.2031 C   0  0  0  0  0  0  0  0  0  0  0  0
    1.5445    1.1492   -0.5122 C   0  0  0  0  0  0  0  0  0  0  0  0
    5.0507    0.3866    0.5030 C   0  0  0  0  0  0  0  0  0  0  0  0
    0.6097   -2.5322   -0.3836 C   0  0  0  0  0  0  0  0  0  0  0  0
   -0.6254    0.0517   -0.8538 C   0  0  0  0  0  0  0  0  0  0  0  0
    5.3316    1.7009    0.2088 C   0  0  0  0  0  0  0  0  0  0  0  0
   -2.8037    0.2713    0.3755 C   0  0  0  0  0  0  0  0  0  0  0  0
   -3.5192    0.1992   -0.8087 C   0  0  0  0  0  0  0  0  0  0  0  0
   -4.9058    0.2749   -0.7368 C   0  0  0  0  0  0  0  0  0  0  0  0
   -4.7201    0.4801    1.6255 C   0  0  0  0  0  0  0  0  0  0  0  0
   -5.5254    0.4181    0.4998 C   0  0  0  0  0  0  0  0  0  0  0  0
    5.7873   -0.3157    0.8710 H   0  0  0  0  0  0  0  0  0  0  0  0
   -0.0972   -2.5435    0.4509 H   0  0  0  0  0  0  0  0  0  0  0  0
    0.0649   -2.6018   -1.3298 H   0  0  0  0  0  0  0  0  0  0  0  0
    1.2443   -3.4212   -0.3157 H   0  0  0  0  0  0  0  0  0  0  0  0
    6.2826    2.2076    0.2950 H   0  0  0  0  0  0  0  0  0  0  0  0
   -0.9175    0.2505    1.1897 H   0  0  0  0  0  0  0  0  0  0  0  0
    0.0878    2.3334   -0.9639 H   0  0  0  0  0  0  0  0  0  0  0  0
   -3.1095    0.0888   -1.7993 H   0  0  0  0  0  0  0  0  0  0  0  0
   -5.5039    0.2224   -1.6416 H   0  0  0  0  0  0  0  0  0  0  0  0
   -5.1542    0.5914    2.6136 H   0  0  0  0  0  0  0  0  0  0  0  0
   -6.6047    0.4791    0.5799 H   0  0  0  0  0  0  0  0  0  0  0  0
  1  3  2  0  0  0  0
  1  4  2  0  0  0  0
  1  7  1  0  0  0  0
  1 10  1  0  0  0  0
  2 12  1  0  0  0  0
  2 17  1  0  0  0  0
  5 13  1  0  0  0  0
  5 29  1  0  0  0  0
  6 16  2  0  0  0  0
  7 11  1  0  0  0  0
  7 15  1  0  0  0  0
  8 16  1  0  0  0  0
  8 18  1  0  0  0  0
  8 28  1  0  0  0  0
  9 18  2  0  0  0  0
  9 21  1  0  0  0  0
 10 12  2  0  0  0  0
 10 14  1  0  0  0  0
 11 13  2  0  0  0  0
 11 16  1  0  0  0  0
 12 13  1  0  0  0  0
 14 17  2  0  0  0  0
 14 23  1  0  0  0  0
 15 24  1  0  0  0  0
 15 25  1  0  0  0  0
 15 26  1  0  0  0  0
 17 27  1  0  0  0  0
 18 19  1  0  0  0  0
 19 20  2  0  0  0  0
 19 30  1  0  0  0  0
 20 22  1  0  0  0  0
 20 31  1  0  0  0  0
 21 22  2  0  0  0  0
 21 32  1  0  0  0  0
 22 33  1  0  0  0  0
M  END
