DB00426
 OpenBabel07062211533D

 42 43  0  0  0  0  0  0  0  0999 V2000
   -3.4907   -0.7273   -0.2285 O   0  0  0  0  0  0  0  0  0  0  0  0
   -0.5530    2.3343    0.2658 O   0  0  0  0  0  0  0  0  0  0  0  0
   -4.9184    0.2707   -1.7461 O   0  0  0  0  0  0  0  0  0  0  0  0
    0.0429    4.1674    1.5392 O   0  0  0  0  0  0  0  0  0  0  0  0
    1.5061   -1.8337    0.9077 N   0  0  0  0  0  0  0  0  0  0  0  0
    2.5619   -3.7031    0.3638 N   0  0  0  0  0  0  0  0  0  0  0  0
    3.0094   -0.1879   -0.0500 N   0  0  0  0  0  0  0  0  0  0  0  0
    4.9133   -1.2690   -1.1283 N   0  0  0  0  0  0  0  0  0  0  0  0
    4.6886    1.0625   -1.0950 N   0  0  0  0  0  0  0  0  0  0  0  0
   -1.7259    0.3475    1.0421 C   0  0  0  0  0  0  0  0  0  0  0  0
   -0.6646   -0.6433    0.5055 C   0  0  0  0  0  0  0  0  0  0  0  0
    0.4816   -0.9630    1.4726 C   0  0  0  0  0  0  0  0  0  0  0  0
   -2.8510    0.5211    0.0068 C   0  0  0  0  0  0  0  0  0  0  0  0
   -1.1365    1.7177    1.4052 C   0  0  0  0  0  0  0  0  0  0  0  0
    2.6159   -1.4381    0.2354 C   0  0  0  0  0  0  0  0  0  0  0  0
    1.5072   -3.1932    0.9649 C   0  0  0  0  0  0  0  0  0  0  0  0
    3.2634   -2.6174   -0.0967 C   0  0  0  0  0  0  0  0  0  0  0  0
    4.4552   -2.5024   -0.8053 C   0  0  0  0  0  0  0  0  0  0  0  0
   -4.5149   -0.7091   -1.1342 C   0  0  0  0  0  0  0  0  0  0  0  0
    0.0053    3.5655    0.4746 C   0  0  0  0  0  0  0  0  0  0  0  0
    4.1728   -0.2041   -0.7365 C   0  0  0  0  0  0  0  0  0  0  0  0
   -5.0902   -2.0854   -1.2802 C   0  0  0  0  0  0  0  0  0  0  0  0
    0.5788    4.0902   -0.8069 C   0  0  0  0  0  0  0  0  0  0  0  0
   -2.1591   -0.0957    1.9484 H   0  0  0  0  0  0  0  0  0  0  0  0
   -0.2439   -0.2517   -0.4302 H   0  0  0  0  0  0  0  0  0  0  0  0
   -1.1523   -1.5894    0.2368 H   0  0  0  0  0  0  0  0  0  0  0  0
    0.9967   -0.0535    1.7981 H   0  0  0  0  0  0  0  0  0  0  0  0
    0.0955   -1.4575    2.3718 H   0  0  0  0  0  0  0  0  0  0  0  0
   -3.5937    1.2335    0.3864 H   0  0  0  0  0  0  0  0  0  0  0  0
   -2.4472    0.9034   -0.9386 H   0  0  0  0  0  0  0  0  0  0  0  0
   -0.3862    1.6162    2.1968 H   0  0  0  0  0  0  0  0  0  0  0  0
   -1.9364    2.3635    1.7893 H   0  0  0  0  0  0  0  0  0  0  0  0
    0.7248   -3.7617    1.4492 H   0  0  0  0  0  0  0  0  0  0  0  0
    5.0535   -3.3465   -1.1226 H   0  0  0  0  0  0  0  0  0  0  0  0
   -5.4882   -2.4241   -0.3203 H   0  0  0  0  0  0  0  0  0  0  0  0
   -4.3205   -2.7718   -1.6420 H   0  0  0  0  0  0  0  0  0  0  0  0
   -5.9066   -2.0622   -2.0076 H   0  0  0  0  0  0  0  0  0  0  0  0
   -0.2127    4.1882   -1.5540 H   0  0  0  0  0  0  0  0  0  0  0  0
    1.3638    3.4182   -1.1628 H   0  0  0  0  0  0  0  0  0  0  0  0
    1.0169    5.0768   -0.6315 H   0  0  0  0  0  0  0  0  0  0  0  0
    4.1821    1.8968   -0.8330 H   0  0  0  0  0  0  0  0  0  0  0  0
    5.5563    1.1176   -1.6102 H   0  0  0  0  0  0  0  0  0  0  0  0
  1 13  1  0  0  0  0
  1 19  1  0  0  0  0
  2 14  1  0  0  0  0
  2 20  1  0  0  0  0
  3 19  2  0  0  0  0
  4 20  2  0  0  0  0
  5 12  1  0  0  0  0
  5 15  1  0  0  0  0
  5 16  2  0  0  0  0
  6 16  1  0  0  0  0
  6 17  2  0  0  0  0
  7 15  2  0  0  0  0
  7 21  1  0  0  0  0
  8 18  1  0  0  0  0
  8 21  2  0  0  0  0
  9 21  1  0  0  0  0
  9 41  1  0  0  0  0
  9 42  1  0  0  0  0
 10 11  1  0  0  0  0
 10 13  1  0  0  0  0
 10 14  1  0  0  0  0
 10 24  1  0  0  0  0
 11 12  1  0  0  0  0
 11 25  1  0  0  0  0
 11 26  1  0  0  0  0
 12 27  1  0  0  0  0
 12 28  1  0  0  0  0
 13 29  1  0  0  0  0
 13 30  1  0  0  0  0
 14 31  1  0  0  0  0
 14 32  1  0  0  0  0
 15 17  1  0  0  0  0
 16 33  1  0  0  0  0
 17 18  2  0  0  0  0
 18 34  1  0  0  0  0
 19 22  1  0  0  0  0
 20 23  1  0  0  0  0
 22 35  1  0  0  0  0
 22 36  1  0  0  0  0
 22 37  1  0  0  0  0
 23 38  1  0  0  0  0
 23 39  1  0  0  0  0
 23 40  1  0  0  0  0
M  END
