DB00165
 OpenBabel07062211533D

 23 23  0  0  0  0  0  0  0  0999 V2000
    1.5886   -1.8413    0.3046 O   0  0  0  0  0  0  0  0  0  0  0  0
   -1.4982   -2.2561   -1.0463 O   0  0  0  0  0  0  0  0  0  0  0  0
   -2.8769    1.2822    1.0748 O   0  0  0  0  0  0  0  0  0  0  0  0
    1.3014    1.7469   -0.2846 N   0  0  0  0  0  0  0  0  0  0  0  0
   -0.3601   -0.4765    0.0465 C   0  0  0  0  0  0  0  0  0  0  0  0
   -0.9121    0.7816   -0.1681 C   0  0  0  0  0  0  0  0  0  0  0  0
    1.0216   -0.6243    0.0957 C   0  0  0  0  0  0  0  0  0  0  0  0
    1.8013    0.5085   -0.0741 C   0  0  0  0  0  0  0  0  0  0  0  0
   -1.2459   -1.6678    0.2226 C   0  0  0  0  0  0  0  0  0  0  0  0
   -2.3844    0.9984   -0.2297 C   0  0  0  0  0  0  0  0  0  0  0  0
   -0.0459    1.8513   -0.3261 C   0  0  0  0  0  0  0  0  0  0  0  0
    3.2909    0.4060   -0.0307 C   0  0  0  0  0  0  0  0  0  0  0  0
   -0.7713   -2.4203    0.8627 H   0  0  0  0  0  0  0  0  0  0  0  0
   -2.1954   -1.4241    0.7089 H   0  0  0  0  0  0  0  0  0  0  0  0
   -2.6195    1.8561   -0.8707 H   0  0  0  0  0  0  0  0  0  0  0  0
   -2.9339    0.1521   -0.6512 H   0  0  0  0  0  0  0  0  0  0  0  0
   -0.4145    2.8586   -0.4943 H   0  0  0  0  0  0  0  0  0  0  0  0
    3.6586   -0.2526   -0.8241 H   0  0  0  0  0  0  0  0  0  0  0  0
    3.7513    1.3886   -0.1825 H   0  0  0  0  0  0  0  0  0  0  0  0
    3.6267    0.0355    0.9432 H   0  0  0  0  0  0  0  0  0  0  0  0
    2.5565   -1.7833    0.3133 H   0  0  0  0  0  0  0  0  0  0  0  0
   -2.0665   -3.0304   -0.8941 H   0  0  0  0  0  0  0  0  0  0  0  0
   -2.2722    1.9109    1.5041 H   0  0  0  0  0  0  0  0  0  0  0  0
  1  7  1  0  0  0  0
  1 21  1  0  0  0  0
  2  9  1  0  0  0  0
  2 22  1  0  0  0  0
  3 10  1  0  0  0  0
  3 23  1  0  0  0  0
  4  8  2  0  0  0  0
  4 11  1  0  0  0  0
  5  6  1  0  0  0  0
  5  7  2  0  0  0  0
  5  9  1  0  0  0  0
  6 10  1  0  0  0  0
  6 11  2  0  0  0  0
  7  8  1  0  0  0  0
  8 12  1  0  0  0  0
  9 13  1  0  0  0  0
  9 14  1  0  0  0  0
 10 15  1  0  0  0  0
 10 16  1  0  0  0  0
 11 17  1  0  0  0  0
 12 18  1  0  0  0  0
 12 19  1  0  0  0  0
 12 20  1  0  0  0  0
M  END
