DB00774
 OpenBabel07062211533D

 28 29  0  0  0  0  0  0  0  0999 V2000
   -2.3392    1.7985   -0.0745 S   0  0  0  0  0  0  0  0  0  0  0  0
    2.9850    0.9982   -0.5149 S   0  0  0  0  0  0  0  0  0  0  0  0
    1.9672   -3.3085   -0.0728 F   0  0  0  0  0  0  0  0  0  0  0  0
    3.0450   -1.9530   -1.3786 F   0  0  0  0  0  0  0  0  0  0  0  0
    3.2466   -1.7703    0.7791 F   0  0  0  0  0  0  0  0  0  0  0  0
   -2.4468    2.2875    1.2857 O   0  0  0  0  0  0  0  0  0  0  0  0
   -2.1707    2.6990   -1.1975 O   0  0  0  0  0  0  0  0  0  0  0  0
    3.7945   -0.0573   -1.1182 O   0  0  0  0  0  0  0  0  0  0  0  0
    2.7809    2.2614   -1.2168 O   0  0  0  0  0  0  0  0  0  0  0  0
   -2.4794   -1.2853    0.1997 N   0  0  0  0  0  0  0  0  0  0  0  0
   -3.6468    0.7522   -0.4132 N   0  0  0  0  0  0  0  0  0  0  0  0
    3.6569    1.3464    1.0301 N   0  0  0  0  0  0  0  0  0  0  0  0
   -0.9904    0.6587   -0.0854 C   0  0  0  0  0  0  0  0  0  0  0  0
   -1.2223   -0.7187    0.0535 C   0  0  0  0  0  0  0  0  0  0  0  0
    1.3849    0.3242   -0.2986 C   0  0  0  0  0  0  0  0  0  0  0  0
    1.1896   -1.0481   -0.1703 C   0  0  0  0  0  0  0  0  0  0  0  0
    0.2928    1.1849   -0.2601 C   0  0  0  0  0  0  0  0  0  0  0  0
   -3.6719   -0.4878    0.3830 C   0  0  0  0  0  0  0  0  0  0  0  0
   -0.1000   -1.5611   -0.0004 C   0  0  0  0  0  0  0  0  0  0  0  0
    2.3387   -2.0026   -0.2118 C   0  0  0  0  0  0  0  0  0  0  0  0
    0.4250    2.2594   -0.3496 H   0  0  0  0  0  0  0  0  0  0  0  0
   -4.5467   -1.0738    0.0834 H   0  0  0  0  0  0  0  0  0  0  0  0
   -3.7972   -0.2373    1.4423 H   0  0  0  0  0  0  0  0  0  0  0  0
   -0.2474   -2.6358    0.0940 H   0  0  0  0  0  0  0  0  0  0  0  0
   -2.5445   -2.2862    0.3455 H   0  0  0  0  0  0  0  0  0  0  0  0
   -3.9163    0.6402   -1.3987 H   0  0  0  0  0  0  0  0  0  0  0  0
    3.7977    2.3445    1.2365 H   0  0  0  0  0  0  0  0  0  0  0  0
    3.2147    0.8708    1.8285 H   0  0  0  0  0  0  0  0  0  0  0  0
  1  6  2  0  0  0  0
  1  7  2  0  0  0  0
  1 11  1  0  0  0  0
  1 13  1  0  0  0  0
  2  8  2  0  0  0  0
  2  9  2  0  0  0  0
  2 12  1  0  0  0  0
  2 15  1  0  0  0  0
  3 20  1  0  0  0  0
  4 20  1  0  0  0  0
  5 20  1  0  0  0  0
 10 14  1  0  0  0  0
 10 18  1  0  0  0  0
 10 25  1  0  0  0  0
 11 18  1  0  0  0  0
 11 26  1  0  0  0  0
 12 27  1  0  0  0  0
 12 28  1  0  0  0  0
 13 14  2  0  0  0  0
 13 17  1  0  0  0  0
 14 19  1  0  0  0  0
 15 16  1  0  0  0  0
 15 17  2  0  0  0  0
 16 19  2  0  0  0  0
 16 20  1  0  0  0  0
 17 21  1  0  0  0  0
 18 22  1  0  0  0  0
 18 23  1  0  0  0  0
 19 24  1  0  0  0  0
M  END
