DB00306
 OpenBabel07062211533D

 32 32  0  0  1  0  0  0  0  0999 V2000
   -1.7385   -0.2280   -1.9044 O   0  0  0  0  0  0  0  0  0  0  0  0
   -0.1941    0.7561    2.4196 O   0  0  0  0  0  0  0  0  0  0  0  0
   -1.2829    4.1188   -0.5068 O   0  0  0  0  0  0  0  0  0  0  0  0
   -1.4165    1.9432   -1.2375 N   0  0  0  0  0  0  0  0  0  0  0  0
   -0.6444    2.4349    0.9222 N   0  0  0  0  0  0  0  0  0  0  0  0
   -0.3987    0.1428    0.0825 C   0  0  0  0  0  0  0  0  0  0  0  0
    1.0539    0.0838   -0.4232 C   0  0  1  0  0  0  0  0  0  0  0  0
   -0.8289   -1.2540    0.5541 C   0  0  0  0  0  0  0  0  0  0  0  0
    1.9887   -0.3033    0.7337 C   0  0  0  0  0  0  0  0  0  0  0  0
   -1.2651    0.5717   -1.0974 C   0  0  0  0  0  0  0  0  0  0  0  0
   -0.4219    1.1089    1.2627 C   0  0  0  0  0  0  0  0  0  0  0  0
    1.1465   -0.8840   -1.6014 C   0  0  0  0  0  0  0  0  0  0  0  0
    3.4591   -0.3263    0.3410 C   0  0  0  0  0  0  0  0  0  0  0  0
   -2.2772   -1.2684    0.9142 C   0  0  0  0  0  0  0  0  0  0  0  0
   -1.1100    2.9174   -0.2950 C   0  0  0  0  0  0  0  0  0  0  0  0
   -3.1854   -2.0392    0.3056 C   0  0  0  0  0  0  0  0  0  0  0  0
    1.3589    1.0753   -0.7866 H   0  0  0  0  0  0  0  0  0  0  0  0
   -0.2876   -1.5795    1.4491 H   0  0  0  0  0  0  0  0  0  0  0  0
   -0.6638   -2.0254   -0.2034 H   0  0  0  0  0  0  0  0  0  0  0  0
    1.7525   -1.2911    1.1403 H   0  0  0  0  0  0  0  0  0  0  0  0
    1.9320    0.4169    1.5532 H   0  0  0  0  0  0  0  0  0  0  0  0
    1.0192   -1.9326   -1.3209 H   0  0  0  0  0  0  0  0  0  0  0  0
    2.1522   -0.8217   -2.0358 H   0  0  0  0  0  0  0  0  0  0  0  0
    0.4849   -0.6473   -2.4355 H   0  0  0  0  0  0  0  0  0  0  0  0
    4.0825   -0.4882    1.2267 H   0  0  0  0  0  0  0  0  0  0  0  0
    3.7609    0.6221   -0.1147 H   0  0  0  0  0  0  0  0  0  0  0  0
    3.6760   -1.1358   -0.3621 H   0  0  0  0  0  0  0  0  0  0  0  0
   -1.8716    2.2653   -2.0870 H   0  0  0  0  0  0  0  0  0  0  0  0
   -0.5305    3.1194    1.6646 H   0  0  0  0  0  0  0  0  0  0  0  0
   -2.6095   -0.6344    1.7322 H   0  0  0  0  0  0  0  0  0  0  0  0
   -4.2235   -2.0146    0.6191 H   0  0  0  0  0  0  0  0  0  0  0  0
   -2.9171   -2.7027   -0.5089 H   0  0  0  0  0  0  0  0  0  0  0  0
  1 10  2  0  0  0  0
  2 11  2  0  0  0  0
  3 15  2  0  0  0  0
  4 10  1  0  0  0  0
  4 15  1  0  0  0  0
  4 28  1  0  0  0  0
  5 11  1  0  0  0  0
  5 15  1  0  0  0  0
  5 29  1  0  0  0  0
  6  7  1  0  0  0  0
  6  8  1  0  0  0  0
  6 10  1  0  0  0  0
  6 11  1  0  0  0  0
  7  9  1  0  0  0  0
  7 12  1  0  0  0  0
  7 17  1  6  0  0  0
  8 14  1  0  0  0  0
  8 18  1  0  0  0  0
  8 19  1  0  0  0  0
  9 13  1  0  0  0  0
  9 20  1  0  0  0  0
  9 21  1  0  0  0  0
 12 22  1  0  0  0  0
 12 23  1  0  0  0  0
 12 24  1  0  0  0  0
 13 25  1  0  0  0  0
 13 26  1  0  0  0  0
 13 27  1  0  0  0  0
 14 16  2  0  0  0  0
 14 30  1  0  0  0  0
 16 31  1  0  0  0  0
 16 32  1  0  0  0  0
M  END
