DB00605
 OpenBabel07062211533D

 42 44  0  0  0  0  0  0  0  0999 V2000
    5.9314    0.4875    0.3819 S   0  0  1  0  0  0  0  0  0  0  0  0
   -1.3205   -4.5766   -0.3993 F   0  0  0  0  0  0  0  0  0  0  0  0
   -6.4750   -0.5568    0.7193 O   0  0  0  0  0  0  0  0  0  0  0  0
   -4.5753   -0.2617    1.9353 O   0  0  0  0  0  0  0  0  0  0  0  0
    6.5680    0.9032   -0.9151 O   0  0  0  0  0  0  0  0  0  0  0  0
   -3.0473    0.0644   -0.3779 C   0  0  0  0  0  0  0  0  0  0  0  0
   -2.0679   -1.0367   -0.3359 C   0  0  0  0  0  0  0  0  0  0  0  0
   -2.3675    1.2273   -0.2805 C   0  0  0  0  0  0  0  0  0  0  0  0
   -0.9363    0.9416   -0.1723 C   0  0  0  0  0  0  0  0  0  0  0  0
   -0.7703   -0.5124   -0.2099 C   0  0  0  0  0  0  0  0  0  0  0  0
   -4.5062   -0.1888   -0.5063 C   0  0  0  0  0  0  0  0  0  0  0  0
    0.0612    1.8265   -0.0582 C   0  0  0  0  0  0  0  0  0  0  0  0
   -2.2694   -2.4078   -0.4012 C   0  0  0  0  0  0  0  0  0  0  0  0
    0.3410   -1.3372   -0.1469 C   0  0  0  0  0  0  0  0  0  0  0  0
   -2.9081    2.6164   -0.2755 C   0  0  0  0  0  0  0  0  0  0  0  0
    1.4927    1.4996    0.0490 C   0  0  0  0  0  0  0  0  0  0  0  0
   -1.1545   -3.2482   -0.3385 C   0  0  0  0  0  0  0  0  0  0  0  0
    0.1392   -2.7173   -0.2124 C   0  0  0  0  0  0  0  0  0  0  0  0
   -5.1420   -0.3301    0.8550 C   0  0  0  0  0  0  0  0  0  0  0  0
    2.0586    1.3286    1.3025 C   0  0  0  0  0  0  0  0  0  0  0  0
    2.2485    1.3691   -1.1057 C   0  0  0  0  0  0  0  0  0  0  0  0
    4.1880    0.8843    0.2509 C   0  0  0  0  0  0  0  0  0  0  0  0
    3.4149    1.0190    1.4042 C   0  0  0  0  0  0  0  0  0  0  0  0
    3.6048    1.0594   -1.0040 C   0  0  0  0  0  0  0  0  0  0  0  0
    5.7684   -1.3172    0.3395 C   0  0  0  0  0  0  0  0  0  0  0  0
   -4.7066   -1.0884   -1.0967 H   0  0  0  0  0  0  0  0  0  0  0  0
   -4.9891    0.6509   -1.0185 H   0  0  0  0  0  0  0  0  0  0  0  0
   -0.1482    2.8936   -0.0367 H   0  0  0  0  0  0  0  0  0  0  0  0
   -3.2608   -2.8374   -0.4950 H   0  0  0  0  0  0  0  0  0  0  0  0
    1.3584   -0.9967   -0.0472 H   0  0  0  0  0  0  0  0  0  0  0  0
   -4.0002    2.6322   -0.3380 H   0  0  0  0  0  0  0  0  0  0  0  0
   -2.5207    3.1845   -1.1276 H   0  0  0  0  0  0  0  0  0  0  0  0
   -2.6286    3.1360    0.6470 H   0  0  0  0  0  0  0  0  0  0  0  0
    0.9911   -3.3903   -0.1647 H   0  0  0  0  0  0  0  0  0  0  0  0
    1.4668    1.4306    2.2083 H   0  0  0  0  0  0  0  0  0  0  0  0
    1.8053    1.5021   -2.0891 H   0  0  0  0  0  0  0  0  0  0  0  0
    3.8550    0.8852    2.3891 H   0  0  0  0  0  0  0  0  0  0  0  0
    4.1840    0.9548   -1.9176 H   0  0  0  0  0  0  0  0  0  0  0  0
   -6.9190   -0.6561    1.5884 H   0  0  0  0  0  0  0  0  0  0  0  0
    5.2099   -1.6551    1.2158 H   0  0  0  0  0  0  0  0  0  0  0  0
    6.7693   -1.7550    0.3596 H   0  0  0  0  0  0  0  0  0  0  0  0
    5.2569   -1.6269   -0.5751 H   0  0  0  0  0  0  0  0  0  0  0  0
  1  5  2  6  0  0  0
  1 22  1  0  0  0  0
  1 25  1  0  0  0  0
  2 17  1  0  0  0  0
  3 19  1  0  0  0  0
  3 39  1  0  0  0  0
  4 19  2  0  0  0  0
  6  7  1  0  0  0  0
  6  8  2  0  0  0  0
  6 11  1  0  0  0  0
  7 10  2  0  0  0  0
  7 13  1  0  0  0  0
  8  9  1  0  0  0  0
  8 15  1  0  0  0  0
  9 10  1  0  0  0  0
  9 12  2  0  0  0  0
 10 14  1  0  0  0  0
 11 19  1  0  0  0  0
 11 26  1  0  0  0  0
 11 27  1  0  0  0  0
 12 16  1  0  0  0  0
 12 28  1  0  0  0  0
 13 17  2  0  0  0  0
 13 29  1  0  0  0  0
 14 18  2  0  0  0  0
 14 30  1  0  0  0  0
 15 31  1  0  0  0  0
 15 32  1  0  0  0  0
 15 33  1  0  0  0  0
 16 20  2  0  0  0  0
 16 21  1  0  0  0  0
 17 18  1  0  0  0  0
 18 34  1  0  0  0  0
 20 23  1  0  0  0  0
 20 35  1  0  0  0  0
 21 24  2  0  0  0  0
 21 36  1  0  0  0  0
 22 23  2  0  0  0  0
 22 24  1  0  0  0  0
 23 37  1  0  0  0  0
 24 38  1  0  0  0  0
 25 40  1  0  0  0  0
 25 41  1  0  0  0  0
 25 42  1  0  0  0  0
M  END
