DB00499
 OpenBabel07062211533D

 30 30  0  0  0  0  0  0  0  0999 V2000
    3.3476   -2.8771    0.3828 F   0  0  0  0  0  0  0  0  0  0  0  0
    4.6627   -1.7165   -0.8928 F   0  0  0  0  0  0  0  0  0  0  0  0
    4.7028   -1.4210    1.2612 F   0  0  0  0  0  0  0  0  0  0  0  0
   -1.9897    1.7125   -0.0854 O   0  0  0  0  0  0  0  0  0  0  0  0
    4.7878    2.3918   -0.3361 O   0  0  0  0  0  0  0  0  0  0  0  0
    5.4175    0.3044   -0.0807 O   0  0  0  0  0  0  0  0  0  0  0  0
   -0.8671   -0.3327    0.1589 N   0  0  0  0  0  0  0  0  0  0  0  0
    4.5226    1.1775   -0.1719 N   0  0  0  0  0  0  0  0  0  0  0  0
   -3.2832   -0.3022    0.2148 C   0  0  0  0  0  0  0  0  0  0  0  0
    0.4950    0.0425    0.0764 C   0  0  0  0  0  0  0  0  0  0  0  0
   -1.9828    0.4958    0.0792 C   0  0  0  0  0  0  0  0  0  0  0  0
    2.8162   -0.5622    0.0965 C   0  0  0  0  0  0  0  0  0  0  0  0
    1.4737   -0.9322    0.1782 C   0  0  0  0  0  0  0  0  0  0  0  0
   -4.3768    0.5323    0.8785 C   0  0  0  0  0  0  0  0  0  0  0  0
   -3.7451   -0.7897   -1.1572 C   0  0  0  0  0  0  0  0  0  0  0  0
    3.1606    0.7772   -0.0857 C   0  0  0  0  0  0  0  0  0  0  0  0
    0.8200    1.3763   -0.1045 C   0  0  0  0  0  0  0  0  0  0  0  0
    2.1624    1.7465   -0.1863 C   0  0  0  0  0  0  0  0  0  0  0  0
    3.8613   -1.6250    0.2079 C   0  0  0  0  0  0  0  0  0  0  0  0
   -3.0988   -1.1744    0.8547 H   0  0  0  0  0  0  0  0  0  0  0  0
   -1.0303   -1.3291    0.2869 H   0  0  0  0  0  0  0  0  0  0  0  0
    1.1928   -1.9724    0.3199 H   0  0  0  0  0  0  0  0  0  0  0  0
   -4.0418    0.9040    1.8530 H   0  0  0  0  0  0  0  0  0  0  0  0
   -5.2811   -0.0647    1.0357 H   0  0  0  0  0  0  0  0  0  0  0  0
   -4.6460    1.4012    0.2679 H   0  0  0  0  0  0  0  0  0  0  0  0
   -4.6634   -1.3801   -1.0749 H   0  0  0  0  0  0  0  0  0  0  0  0
   -2.9796   -1.4178   -1.6256 H   0  0  0  0  0  0  0  0  0  0  0  0
   -3.9368    0.0515   -1.8326 H   0  0  0  0  0  0  0  0  0  0  0  0
    0.1085    2.1838   -0.1906 H   0  0  0  0  0  0  0  0  0  0  0  0
    2.3909    2.7998   -0.3283 H   0  0  0  0  0  0  0  0  0  0  0  0
  1 19  1  0  0  0  0
  2 19  1  0  0  0  0
  3 19  1  0  0  0  0
  4 11  2  0  0  0  0
  5  8  1  0  0  0  0
  6  8  2  0  0  0  0
  7 10  1  0  0  0  0
  7 11  1  0  0  0  0
  7 21  1  0  0  0  0
  8 16  1  0  0  0  0
  9 11  1  0  0  0  0
  9 14  1  0  0  0  0
  9 15  1  0  0  0  0
  9 20  1  0  0  0  0
 10 13  2  0  0  0  0
 10 17  1  0  0  0  0
 12 13  1  0  0  0  0
 12 16  2  0  0  0  0
 12 19  1  0  0  0  0
 13 22  1  0  0  0  0
 14 23  1  0  0  0  0
 14 24  1  0  0  0  0
 14 25  1  0  0  0  0
 15 26  1  0  0  0  0
 15 27  1  0  0  0  0
 15 28  1  0  0  0  0
 16 18  1  0  0  0  0
 17 18  2  0  0  0  0
 17 29  1  0  0  0  0
 18 30  1  0  0  0  0
M  END
