DB00881
 OpenBabel07062211533D

 62 64  0  0  1  0  0  0  0  0999 V2000
   -0.6594   -2.6666    0.1778 O   0  0  0  0  0  0  0  0  0  0  0  0
    1.4430    2.5097   -0.1094 O   0  0  0  0  0  0  0  0  0  0  0  0
    1.0529    1.6541   -2.2128 O   0  0  0  0  0  0  0  0  0  0  0  0
   -3.9314   -3.4750   -0.9185 O   0  0  0  0  0  0  0  0  0  0  0  0
   -5.3332   -3.3790    0.8871 O   0  0  0  0  0  0  0  0  0  0  0  0
    0.8367   -0.9168   -1.2357 N   0  3  0  0  0  0  0  0  0  0  0  0
   -2.5604   -1.3303   -0.0017 N   0  0  0  0  0  0  0  0  0  0  0  0
   -0.6190   -0.9836   -1.4940 C   0  0  2  0  0  0  0  0  0  0  0  0
   -3.3286   -2.1540    0.9360 C   0  0  1  0  0  0  0  0  0  0  0  0
    1.2494    0.1681   -0.3017 C   0  0  1  0  0  0  0  0  0  0  0  0
   -3.2618   -0.2246   -0.6734 C   0  0  0  0  0  0  0  0  0  0  0  0
   -4.1056   -1.3063    1.9396 C   0  0  0  0  0  0  0  0  0  0  0  0
   -1.2725   -1.7444   -0.3656 C   0  0  0  0  0  0  0  0  0  0  0  0
   -4.4766    0.3088    0.0401 C   0  0  0  0  0  0  0  0  0  0  0  0
   -4.8916   -0.2084    1.2760 C   0  0  0  0  0  0  0  0  0  0  0  0
    2.5826   -0.1971    0.3671 C   0  0  0  0  0  0  0  0  0  0  0  0
   -0.8659   -1.6758   -2.8140 C   0  0  0  0  0  0  0  0  0  0  0  0
    3.8203   -0.2925   -0.5402 C   0  0  0  0  0  0  0  0  0  0  0  0
    1.2445    1.5051   -1.0126 C   0  0  0  0  0  0  0  0  0  0  0  0
   -4.2922   -3.0961    0.2302 C   0  0  0  0  0  0  0  0  0  0  0  0
   -5.2097    1.3498   -0.5492 C   0  0  0  0  0  0  0  0  0  0  0  0
   -6.0141    0.3354    1.9159 C   0  0  0  0  0  0  0  0  0  0  0  0
    5.1042   -0.6352    0.1701 C   0  0  0  0  0  0  0  0  0  0  0  0
   -6.3338    1.8759    0.0870 C   0  0  0  0  0  0  0  0  0  0  0  0
   -6.7343    1.3703    1.3206 C   0  0  0  0  0  0  0  0  0  0  0  0
    5.9160    0.3817    0.6728 C   0  0  0  0  0  0  0  0  0  0  0  0
    5.4810   -1.9692    0.3255 C   0  0  0  0  0  0  0  0  0  0  0  0
    1.4186    3.8365   -0.6453 C   0  0  0  0  0  0  0  0  0  0  0  0
    7.1047    0.0647    1.3304 C   0  0  0  0  0  0  0  0  0  0  0  0
    6.6695   -2.2863    0.9832 C   0  0  0  0  0  0  0  0  0  0  0  0
    7.4812   -1.2693    1.4856 C   0  0  0  0  0  0  0  0  0  0  0  0
    1.6525    4.8257    0.4763 C   0  0  0  0  0  0  0  0  0  0  0  0
   -0.9499    0.0473   -1.5836 H   0  0  0  0  0  0  0  0  0  0  0  0
    1.1562   -1.8298   -0.8812 H   0  0  0  0  0  0  0  0  0  0  0  0
    1.3445   -0.7879   -2.1227 H   0  0  0  0  0  0  0  0  0  0  0  0
   -2.6422   -2.8010    1.4967 H   0  0  0  0  0  0  0  0  0  0  0  0
    0.4792    0.2080    0.4791 H   0  0  0  0  0  0  0  0  0  0  0  0
   -3.5463   -0.5754   -1.6714 H   0  0  0  0  0  0  0  0  0  0  0  0
   -2.5773    0.6214   -0.7703 H   0  0  0  0  0  0  0  0  0  0  0  0
   -3.3820   -0.8121    2.6032 H   0  0  0  0  0  0  0  0  0  0  0  0
   -4.7462   -1.9078    2.5951 H   0  0  0  0  0  0  0  0  0  0  0  0
    2.4611   -1.1497    0.9009 H   0  0  0  0  0  0  0  0  0  0  0  0
    2.7911    0.5482    1.1467 H   0  0  0  0  0  0  0  0  0  0  0  0
   -0.4733   -2.6992   -2.8103 H   0  0  0  0  0  0  0  0  0  0  0  0
   -1.9364   -1.7423   -3.0337 H   0  0  0  0  0  0  0  0  0  0  0  0
   -0.3898   -1.1362   -3.6399 H   0  0  0  0  0  0  0  0  0  0  0  0
    3.9561    0.6573   -1.0737 H   0  0  0  0  0  0  0  0  0  0  0  0
    3.6431   -1.0391   -1.3249 H   0  0  0  0  0  0  0  0  0  0  0  0
   -4.9039    1.7582   -1.5094 H   0  0  0  0  0  0  0  0  0  0  0  0
   -6.3342   -0.0465    2.8820 H   0  0  0  0  0  0  0  0  0  0  0  0
   -6.8932    2.6823   -0.3779 H   0  0  0  0  0  0  0  0  0  0  0  0
   -7.6058    1.7829    1.8202 H   0  0  0  0  0  0  0  0  0  0  0  0
    5.6319    1.4246    0.5600 H   0  0  0  0  0  0  0  0  0  0  0  0
    4.8557   -2.7703   -0.0596 H   0  0  0  0  0  0  0  0  0  0  0  0
    2.2063    3.9395   -1.3999 H   0  0  0  0  0  0  0  0  0  0  0  0
    0.4436    4.0253   -1.1083 H   0  0  0  0  0  0  0  0  0  0  0  0
    7.7365    0.8564    1.7222 H   0  0  0  0  0  0  0  0  0  0  0  0
    6.9625   -3.3250    1.1047 H   0  0  0  0  0  0  0  0  0  0  0  0
    8.4065   -1.5162    1.9979 H   0  0  0  0  0  0  0  0  0  0  0  0
    0.8826    4.7222    1.2482 H   0  0  0  0  0  0  0  0  0  0  0  0
    2.6160    4.6372    0.9614 H   0  0  0  0  0  0  0  0  0  0  0  0
    1.6408    5.8528    0.1011 H   0  0  0  0  0  0  0  0  0  0  0  0
  1 13  2  0  0  0  0
  2 19  1  0  0  0  0
  2 28  1  0  0  0  0
  3 19  2  0  0  0  0
  4 20  2  0  0  0  0
  5 20  1  0  0  0  0
  6  8  1  0  0  0  0
  6 10  1  0  0  0  0
  6 34  1  0  0  0  0
  6 35  1  0  0  0  0
  7  9  1  0  0  0  0
  7 11  1  0  0  0  0
  7 13  1  0  0  0  0
  8 13  1  0  0  0  0
  8 17  1  0  0  0  0
  8 33  1  6  0  0  0
  9 12  1  0  0  0  0
  9 20  1  0  0  0  0
  9 36  1  1  0  0  0
 10 16  1  0  0  0  0
 10 19  1  0  0  0  0
 10 37  1  1  0  0  0
 11 14  1  0  0  0  0
 11 38  1  0  0  0  0
 11 39  1  0  0  0  0
 12 15  1  0  0  0  0
 12 40  1  0  0  0  0
 12 41  1  0  0  0  0
 14 15  2  0  0  0  0
 14 21  1  0  0  0  0
 15 22  1  0  0  0  0
 16 18  1  0  0  0  0
 16 42  1  0  0  0  0
 16 43  1  0  0  0  0
 17 44  1  0  0  0  0
 17 45  1  0  0  0  0
 17 46  1  0  0  0  0
 18 23  1  0  0  0  0
 18 47  1  0  0  0  0
 18 48  1  0  0  0  0
 21 24  2  0  0  0  0
 21 49  1  0  0  0  0
 22 25  2  0  0  0  0
 22 50  1  0  0  0  0
 23 26  2  0  0  0  0
 23 27  1  0  0  0  0
 24 25  1  0  0  0  0
 24 51  1  0  0  0  0
 25 52  1  0  0  0  0
 26 29  1  0  0  0  0
 26 53  1  0  0  0  0
 27 30  2  0  0  0  0
 27 54  1  0  0  0  0
 28 32  1  0  0  0  0
 28 55  1  0  0  0  0
 28 56  1  0  0  0  0
 29 31  2  0  0  0  0
 29 57  1  0  0  0  0
 30 31  1  0  0  0  0
 30 58  1  0  0  0  0
 31 59  1  0  0  0  0
 32 60  1  0  0  0  0
 32 61  1  0  0  0  0
 32 62  1  0  0  0  0
M  CHG  1   6   1
M  END
