DB00153
 OpenBabel07062211533D

 73 75  0  0  1  0  0  0  0  0999 V2000
   -8.0163   -0.0162   -1.4087 O   0  0  0  0  0  0  0  0  0  0  0  0
    0.1892    1.4403    0.0533 C   0  0  2  0  0  0  0  0  0  0  0  0
    1.4712    0.7554   -0.4857 C   0  0  2  0  0  0  0  0  0  0  0  0
   -0.8801    0.5924   -0.6798 C   0  0  1  0  0  0  0  0  0  0  0  0
    1.1339   -0.7501   -0.4585 C   0  0  0  0  0  0  0  0  0  0  0  0
   -0.4006   -0.8486   -0.4799 C   0  0  0  0  0  0  0  0  0  0  0  0
    0.0527    2.9261   -0.3561 C   0  0  0  0  0  0  0  0  0  0  0  0
    2.7709    1.0844    0.2346 C   0  0  2  0  0  0  0  0  0  0  0  0
   -2.2793    1.0020   -0.3011 C   0  0  0  0  0  0  0  0  0  0  0  0
    0.0980    1.3295    1.5976 C   0  0  0  0  0  0  0  0  0  0  0  0
   -1.3616    3.3063   -0.8361 C   0  0  0  0  0  0  0  0  0  0  0  0
   -2.4891    2.4980   -0.1805 C   0  0  0  0  0  0  0  0  0  0  0  0
    3.0614    2.5860    0.1755 C   0  0  0  0  0  0  0  0  0  0  0  0
    3.9179    0.3131   -0.3725 C   0  0  0  0  0  0  0  0  0  0  0  0
   -3.2875    0.1433   -0.0898 C   0  0  0  0  0  0  0  0  0  0  0  0
    4.6660   -0.5701    0.3066 C   0  0  0  0  0  0  0  0  0  0  0  0
   -4.6218    0.5617    0.2608 C   0  0  0  0  0  0  0  0  0  0  0  0
    5.8069   -1.3532   -0.3058 C   0  0  1  0  0  0  0  0  0  0  0  0
   -5.6315   -0.2975    0.4724 C   0  0  0  0  0  0  0  0  0  0  0  0
    7.1536   -1.0430    0.4080 C   0  0  0  0  0  0  0  0  0  0  0  0
   -7.0299    0.1792    0.7962 C   0  0  0  0  0  0  0  0  0  0  0  0
    5.4442   -2.8420   -0.2532 C   0  0  0  0  0  0  0  0  0  0  0  0
   -5.4748   -1.7447    0.3671 C   0  0  0  0  0  0  0  0  0  0  0  0
   -8.0994   -0.4980   -0.0689 C   0  0  2  0  0  0  0  0  0  0  0  0
   -6.5216   -2.4422   -0.4662 C   0  0  0  0  0  0  0  0  0  0  0  0
   -7.9402   -2.0197   -0.0728 C   0  0  0  0  0  0  0  0  0  0  0  0
    7.5155    0.4455    0.3407 C   0  0  0  0  0  0  0  0  0  0  0  0
    8.3115   -1.8576   -0.1872 C   0  0  0  0  0  0  0  0  0  0  0  0
   -4.4956   -2.4210    0.9883 C   0  0  0  0  0  0  0  0  0  0  0  0
    1.5839    1.0332   -1.5463 H   0  0  0  0  0  0  0  0  0  0  0  0
   -0.7967    0.7904   -1.7614 H   0  0  0  0  0  0  0  0  0  0  0  0
    1.5163   -1.2455    0.4415 H   0  0  0  0  0  0  0  0  0  0  0  0
    1.5674   -1.2624   -1.3247 H   0  0  0  0  0  0  0  0  0  0  0  0
   -0.7455   -1.5052   -1.2859 H   0  0  0  0  0  0  0  0  0  0  0  0
   -0.7594   -1.2726    0.4654 H   0  0  0  0  0  0  0  0  0  0  0  0
    0.7418    3.1813   -1.1686 H   0  0  0  0  0  0  0  0  0  0  0  0
    0.3058    3.5833    0.4840 H   0  0  0  0  0  0  0  0  0  0  0  0
    2.6945    0.8034    1.2925 H   0  0  0  0  0  0  0  0  0  0  0  0
    0.8563    1.9447    2.0926 H   0  0  0  0  0  0  0  0  0  0  0  0
   -0.8690    1.6714    1.9774 H   0  0  0  0  0  0  0  0  0  0  0  0
    0.2346    0.3028    1.9515 H   0  0  0  0  0  0  0  0  0  0  0  0
   -1.4115    3.1596   -1.9236 H   0  0  0  0  0  0  0  0  0  0  0  0
   -1.5265    4.3775   -0.6694 H   0  0  0  0  0  0  0  0  0  0  0  0
   -3.4167    2.8081   -0.6752 H   0  0  0  0  0  0  0  0  0  0  0  0
   -2.5606    2.7786    0.8768 H   0  0  0  0  0  0  0  0  0  0  0  0
    2.9955    2.9783   -0.8448 H   0  0  0  0  0  0  0  0  0  0  0  0
    4.0811    2.7886    0.5268 H   0  0  0  0  0  0  0  0  0  0  0  0
    2.4061    3.1620    0.8306 H   0  0  0  0  0  0  0  0  0  0  0  0
    4.1337    0.4951   -1.4231 H   0  0  0  0  0  0  0  0  0  0  0  0
   -3.0726   -0.9005   -0.2724 H   0  0  0  0  0  0  0  0  0  0  0  0
    4.4521   -0.7536    1.3572 H   0  0  0  0  0  0  0  0  0  0  0  0
   -4.8336    1.6198    0.3713 H   0  0  0  0  0  0  0  0  0  0  0  0
    5.9073   -1.0772   -1.3645 H   0  0  0  0  0  0  0  0  0  0  0  0
    7.0668   -1.3158    1.4685 H   0  0  0  0  0  0  0  0  0  0  0  0
   -7.2316   -0.0372    1.8532 H   0  0  0  0  0  0  0  0  0  0  0  0
   -7.1031    1.2665    0.6682 H   0  0  0  0  0  0  0  0  0  0  0  0
    6.1416   -3.4423   -0.8455 H   0  0  0  0  0  0  0  0  0  0  0  0
    4.4439   -3.0191   -0.6659 H   0  0  0  0  0  0  0  0  0  0  0  0
    5.4551   -3.2209    0.7750 H   0  0  0  0  0  0  0  0  0  0  0  0
   -9.0950   -0.2340    0.3032 H   0  0  0  0  0  0  0  0  0  0  0  0
   -6.3430   -2.2178   -1.5254 H   0  0  0  0  0  0  0  0  0  0  0  0
   -6.4412   -3.5319   -0.3673 H   0  0  0  0  0  0  0  0  0  0  0  0
   -8.6483   -2.4679   -0.7797 H   0  0  0  0  0  0  0  0  0  0  0  0
   -8.1746   -2.4132    0.9243 H   0  0  0  0  0  0  0  0  0  0  0  0
    8.4844    0.6326    0.8165 H   0  0  0  0  0  0  0  0  0  0  0  0
    7.5772    0.7907   -0.6970 H   0  0  0  0  0  0  0  0  0  0  0  0
    6.7779    1.0632    0.8625 H   0  0  0  0  0  0  0  0  0  0  0  0
    8.3964   -1.6952   -1.2670 H   0  0  0  0  0  0  0  0  0  0  0  0
    9.2643   -1.5732    0.2729 H   0  0  0  0  0  0  0  0  0  0  0  0
    8.1805   -2.9289   -0.0083 H   0  0  0  0  0  0  0  0  0  0  0  0
   -4.4181   -3.4995    0.8902 H   0  0  0  0  0  0  0  0  0  0  0  0
   -3.7744   -1.9455    1.6451 H   0  0  0  0  0  0  0  0  0  0  0  0
   -7.1067   -0.1313   -1.7294 H   0  0  0  0  0  0  0  0  0  0  0  0
  1 24  1  0  0  0  0
  1 73  1  0  0  0  0
  2  3  1  6  0  0  0
  2  7  1  0  0  0  0
  2 10  1  0  0  0  0
  3  5  1  0  0  0  0
  3  8  1  0  0  0  0
  3 30  1  6  0  0  0
  4  2  1  1  0  0  0
  4  6  1  0  0  0  0
  4  9  1  0  0  0  0
  4 31  1  0  0  0  0
  5  6  1  0  0  0  0
  5 32  1  0  0  0  0
  5 33  1  0  0  0  0
  6 34  1  0  0  0  0
  6 35  1  0  0  0  0
  7 11  1  0  0  0  0
  7 36  1  0  0  0  0
  7 37  1  0  0  0  0
  8 13  1  0  0  0  0
  8 14  1  0  0  0  0
  8 38  1  1  0  0  0
  9 12  1  0  0  0  0
  9 15  2  0  0  0  0
 10 39  1  0  0  0  0
 10 40  1  0  0  0  0
 10 41  1  0  0  0  0
 11 12  1  0  0  0  0
 11 42  1  0  0  0  0
 11 43  1  0  0  0  0
 12 44  1  0  0  0  0
 12 45  1  0  0  0  0
 13 46  1  0  0  0  0
 13 47  1  0  0  0  0
 13 48  1  0  0  0  0
 14 16  2  0  0  0  0
 14 49  1  0  0  0  0
 15 17  1  0  0  0  0
 15 50  1  0  0  0  0
 16 18  1  0  0  0  0
 16 51  1  0  0  0  0
 17 19  2  0  0  0  0
 17 52  1  0  0  0  0
 18 20  1  0  0  0  0
 18 22  1  0  0  0  0
 18 53  1  6  0  0  0
 19 21  1  0  0  0  0
 19 23  1  0  0  0  0
 20 27  1  0  0  0  0
 20 28  1  0  0  0  0
 20 54  1  0  0  0  0
 21 24  1  0  0  0  0
 21 55  1  0  0  0  0
 21 56  1  0  0  0  0
 22 57  1  0  0  0  0
 22 58  1  0  0  0  0
 22 59  1  0  0  0  0
 23 25  1  0  0  0  0
 23 29  2  0  0  0  0
 24 26  1  0  0  0  0
 24 60  1  1  0  0  0
 25 26  1  0  0  0  0
 25 61  1  0  0  0  0
 25 62  1  0  0  0  0
 26 63  1  0  0  0  0
 26 64  1  0  0  0  0
 27 65  1  0  0  0  0
 27 66  1  0  0  0  0
 27 67  1  0  0  0  0
 28 68  1  0  0  0  0
 28 69  1  0  0  0  0
 28 70  1  0  0  0  0
 29 71  1  0  0  0  0
 29 72  1  0  0  0  0
M  END
