DB00854
 OpenBabel07062211533D

 42 45  0  0  1  0  0  0  0  0999 V2000
    4.7071   -0.6573    0.9593 O   0  0  0  0  0  0  0  0  0  0  0  0
   -2.1047   -1.6676    0.1495 N   0  0  0  0  0  0  0  0  0  0  0  0
   -0.1104    0.4811    0.6628 C   0  0  2  0  0  0  0  0  0  0  0  0
   -1.1737    0.5870   -0.4635 C   0  0  2  0  0  0  0  0  0  0  0  0
   -1.5318   -0.8338   -0.9359 C   0  0  1  0  0  0  0  0  0  0  0  0
   -0.7495   -0.3341    1.8207 C   0  0  0  0  0  0  0  0  0  0  0  0
    0.1928    1.9212    1.1598 C   0  0  0  0  0  0  0  0  0  0  0  0
   -0.7377    1.5226   -1.6090 C   0  0  0  0  0  0  0  0  0  0  0  0
    1.1299   -0.2904    0.1743 C   0  0  0  0  0  0  0  0  0  0  0  0
   -0.2999   -1.5246   -1.5575 C   0  0  0  0  0  0  0  0  0  0  0  0
   -1.2814   -1.7026    1.3667 C   0  0  0  0  0  0  0  0  0  0  0  0
    0.6363    2.8600    0.0360 C   0  0  0  0  0  0  0  0  0  0  0  0
   -0.3953    2.9152   -1.0857 C   0  0  0  0  0  0  0  0  0  0  0  0
    1.0147   -1.2423   -0.8650 C   0  0  0  0  0  0  0  0  0  0  0  0
    2.3860   -0.1263    0.7860 C   0  0  0  0  0  0  0  0  0  0  0  0
   -3.4879   -1.3003    0.4553 C   0  0  0  0  0  0  0  0  0  0  0  0
    2.1480   -1.9536   -1.2949 C   0  0  0  0  0  0  0  0  0  0  0  0
    3.5027   -0.8445    0.3531 C   0  0  0  0  0  0  0  0  0  0  0  0
    3.3856   -1.7529   -0.6912 C   0  0  0  0  0  0  0  0  0  0  0  0
   -2.0794    1.0469   -0.0418 H   0  0  0  0  0  0  0  0  0  0  0  0
   -2.2823   -0.7726   -1.7358 H   0  0  0  0  0  0  0  0  0  0  0  0
   -1.5817    0.2355    2.2554 H   0  0  0  0  0  0  0  0  0  0  0  0
   -0.0252   -0.4849    2.6317 H   0  0  0  0  0  0  0  0  0  0  0  0
    0.9371    1.9300    1.9626 H   0  0  0  0  0  0  0  0  0  0  0  0
   -0.7174    2.3440    1.6085 H   0  0  0  0  0  0  0  0  0  0  0  0
   -1.5470    1.6037   -2.3446 H   0  0  0  0  0  0  0  0  0  0  0  0
    0.1317    1.1286   -2.1458 H   0  0  0  0  0  0  0  0  0  0  0  0
   -0.2016   -1.1872   -2.5982 H   0  0  0  0  0  0  0  0  0  0  0  0
   -0.4655   -2.6093   -1.6018 H   0  0  0  0  0  0  0  0  0  0  0  0
   -0.4396   -2.3846    1.1980 H   0  0  0  0  0  0  0  0  0  0  0  0
   -1.8370   -2.1655    2.1926 H   0  0  0  0  0  0  0  0  0  0  0  0
    1.6031    2.5388   -0.3677 H   0  0  0  0  0  0  0  0  0  0  0  0
    0.7844    3.8675    0.4416 H   0  0  0  0  0  0  0  0  0  0  0  0
   -1.3082    3.3989   -0.7168 H   0  0  0  0  0  0  0  0  0  0  0  0
   -0.0172    3.5357   -1.9060 H   0  0  0  0  0  0  0  0  0  0  0  0
    2.5067    0.5604    1.6188 H   0  0  0  0  0  0  0  0  0  0  0  0
   -3.9287   -2.0259    1.1485 H   0  0  0  0  0  0  0  0  0  0  0  0
   -4.1059   -1.3285   -0.4491 H   0  0  0  0  0  0  0  0  0  0  0  0
   -3.5806   -0.3066    0.9045 H   0  0  0  0  0  0  0  0  0  0  0  0
    2.0652   -2.6755   -2.1041 H   0  0  0  0  0  0  0  0  0  0  0  0
    4.2502   -2.3144   -1.0335 H   0  0  0  0  0  0  0  0  0  0  0  0
    4.6083    0.0079    1.6621 H   0  0  0  0  0  0  0  0  0  0  0  0
  1 18  1  0  0  0  0
  1 42  1  0  0  0  0
  2  5  1  0  0  0  0
  2 11  1  0  0  0  0
  2 16  1  0  0  0  0
  3  4  1  6  0  0  0
  3  6  1  0  0  0  0
  3  7  1  0  0  0  0
  3  9  1  0  0  0  0
  4  5  1  6  0  0  0
  4  8  1  0  0  0  0
  4 20  1  0  0  0  0
  5 10  1  0  0  0  0
  5 21  1  6  0  0  0
  6 11  1  0  0  0  0
  6 22  1  0  0  0  0
  6 23  1  0  0  0  0
  7 12  1  0  0  0  0
  7 24  1  0  0  0  0
  7 25  1  0  0  0  0
  8 13  1  0  0  0  0
  8 26  1  0  0  0  0
  8 27  1  0  0  0  0
  9 14  2  0  0  0  0
  9 15  1  0  0  0  0
 10 14  1  0  0  0  0
 10 28  1  0  0  0  0
 10 29  1  0  0  0  0
 11 30  1  0  0  0  0
 11 31  1  0  0  0  0
 12 13  1  0  0  0  0
 12 32  1  0  0  0  0
 12 33  1  0  0  0  0
 13 34  1  0  0  0  0
 13 35  1  0  0  0  0
 14 17  1  0  0  0  0
 15 18  2  0  0  0  0
 15 36  1  0  0  0  0
 16 37  1  0  0  0  0
 16 38  1  0  0  0  0
 16 39  1  0  0  0  0
 17 19  2  0  0  0  0
 17 40  1  0  0  0  0
 18 19  1  0  0  0  0
 19 41  1  0  0  0  0
M  END
