DB00420
 OpenBabel07062211533D

 40 42  0  0  0  0  0  0  0  0999 V2000
    1.8512   -2.1587    1.4638 S   0  0  0  0  0  0  0  0  0  0  0  0
    0.7300   -0.2240   -0.6956 N   0  0  0  0  0  0  0  0  0  0  0  0
   -2.3134    1.1023    0.5384 N   0  0  0  0  0  0  0  0  0  0  0  0
    0.0176    0.8694   -1.3692 C   0  0  0  0  0  0  0  0  0  0  0  0
   -0.2204    2.0331   -0.4075 C   0  0  0  0  0  0  0  0  0  0  0  0
   -1.0069    1.6662    0.8548 C   0  0  0  0  0  0  0  0  0  0  0  0
    0.0542   -1.4642   -0.5708 C   0  0  0  0  0  0  0  0  0  0  0  0
    2.0636    0.0227   -0.2819 C   0  0  0  0  0  0  0  0  0  0  0  0
    0.4829   -2.4346    0.3564 C   0  0  0  0  0  0  0  0  0  0  0  0
    2.6911   -0.8002    0.6743 C   0  0  0  0  0  0  0  0  0  0  0  0
   -1.0483   -1.8005   -1.3866 C   0  0  0  0  0  0  0  0  0  0  0  0
    2.8339    1.0725   -0.8282 C   0  0  0  0  0  0  0  0  0  0  0  0
   -0.1857   -3.6665    0.4701 C   0  0  0  0  0  0  0  0  0  0  0  0
    4.0166   -0.5559    1.0753 C   0  0  0  0  0  0  0  0  0  0  0  0
   -3.1415    2.0831   -0.1660 C   0  0  0  0  0  0  0  0  0  0  0  0
   -2.9886    0.6495    1.7559 C   0  0  0  0  0  0  0  0  0  0  0  0
   -1.7061   -3.0283   -1.2730 C   0  0  0  0  0  0  0  0  0  0  0  0
    4.1526    1.3079   -0.4297 C   0  0  0  0  0  0  0  0  0  0  0  0
   -1.2762   -3.9612   -0.3415 C   0  0  0  0  0  0  0  0  0  0  0  0
    4.7435    0.4948    0.5253 C   0  0  0  0  0  0  0  0  0  0  0  0
    0.5635    1.2027   -2.2599 H   0  0  0  0  0  0  0  0  0  0  0  0
   -0.9651    0.6127   -1.7630 H   0  0  0  0  0  0  0  0  0  0  0  0
   -0.7112    2.8490   -0.9511 H   0  0  0  0  0  0  0  0  0  0  0  0
    0.7288    2.4693   -0.0776 H   0  0  0  0  0  0  0  0  0  0  0  0
   -1.1080    2.5622    1.4821 H   0  0  0  0  0  0  0  0  0  0  0  0
   -0.4211    0.9483    1.4418 H   0  0  0  0  0  0  0  0  0  0  0  0
   -1.4110   -1.1617   -2.1844 H   0  0  0  0  0  0  0  0  0  0  0  0
    2.4442    1.7352   -1.5951 H   0  0  0  0  0  0  0  0  0  0  0  0
    0.1380   -4.4120    1.1937 H   0  0  0  0  0  0  0  0  0  0  0  0
    4.4981   -1.1839    1.8221 H   0  0  0  0  0  0  0  0  0  0  0  0
   -2.7674    2.2905   -1.1729 H   0  0  0  0  0  0  0  0  0  0  0  0
   -3.2281    3.0276    0.3836 H   0  0  0  0  0  0  0  0  0  0  0  0
   -4.1542    1.6885   -0.3129 H   0  0  0  0  0  0  0  0  0  0  0  0
   -3.9490    0.1815    1.5126 H   0  0  0  0  0  0  0  0  0  0  0  0
   -3.1715    1.4713    2.4577 H   0  0  0  0  0  0  0  0  0  0  0  0
   -2.3903   -0.1142    2.2656 H   0  0  0  0  0  0  0  0  0  0  0  0
   -2.5449   -3.2564   -1.9242 H   0  0  0  0  0  0  0  0  0  0  0  0
    4.7147    2.1253   -0.8719 H   0  0  0  0  0  0  0  0  0  0  0  0
   -1.7830   -4.9169   -0.2498 H   0  0  0  0  0  0  0  0  0  0  0  0
    5.7673    0.6739    0.8391 H   0  0  0  0  0  0  0  0  0  0  0  0
  1  9  1  0  0  0  0
  1 10  1  0  0  0  0
  2  4  1  0  0  0  0
  2  7  1  0  0  0  0
  2  8  1  0  0  0  0
  3  6  1  0  0  0  0
  3 15  1  0  0  0  0
  3 16  1  0  0  0  0
  4  5  1  0  0  0  0
  4 21  1  0  0  0  0
  4 22  1  0  0  0  0
  5  6  1  0  0  0  0
  5 23  1  0  0  0  0
  5 24  1  0  0  0  0
  6 25  1  0  0  0  0
  6 26  1  0  0  0  0
  7  9  2  0  0  0  0
  7 11  1  0  0  0  0
  8 10  2  0  0  0  0
  8 12  1  0  0  0  0
  9 13  1  0  0  0  0
 10 14  1  0  0  0  0
 11 17  2  0  0  0  0
 11 27  1  0  0  0  0
 12 18  2  0  0  0  0
 12 28  1  0  0  0  0
 13 19  2  0  0  0  0
 13 29  1  0  0  0  0
 14 20  2  0  0  0  0
 14 30  1  0  0  0  0
 15 31  1  0  0  0  0
 15 32  1  0  0  0  0
 15 33  1  0  0  0  0
 16 34  1  0  0  0  0
 16 35  1  0  0  0  0
 16 36  1  0  0  0  0
 17 19  1  0  0  0  0
 17 37  1  0  0  0  0
 18 20  1  0  0  0  0
 18 38  1  0  0  0  0
 19 39  1  0  0  0  0
 20 40  1  0  0  0  0
M  END
