DB00447
 OpenBabel07062211533D

 40 42  0  0  1  0  0  0  0  0999 V2000
    4.1947   -2.9596    0.5369 Cl  0  0  0  0  0  0  0  0  0  0  0  0
    2.7693    2.3398   -1.6889 O   0  0  0  0  0  0  0  0  0  0  0  0
    5.6502    0.0417   -0.7178 O   0  0  0  0  0  0  0  0  0  0  0  0
   -1.3251    1.9075    1.7259 O   0  0  0  0  0  0  0  0  0  0  0  0
    4.3061   -0.7563   -2.3872 O   0  0  0  0  0  0  0  0  0  0  0  0
    2.6729    0.6572   -0.0456 N   0  0  0  0  0  0  0  0  0  0  0  0
   -0.1456    1.8138   -0.2683 N   0  0  0  0  0  0  0  0  0  0  0  0
   -3.6703    2.2443    0.3054 N   0  0  0  0  0  0  0  0  0  0  0  0
    1.7814    0.8292    1.0964 C   0  0  1  0  0  0  0  0  0  0  0  0
    1.1802    2.0254    0.3060 C   0  0  1  0  0  0  0  0  0  0  0  0
    1.0459   -0.4743    1.3364 C   0  0  0  0  0  0  0  0  0  0  0  0
    2.3530    1.7951   -0.6933 C   0  0  0  0  0  0  0  0  0  0  0  0
    2.1032   -1.5655    1.5948 C   0  0  0  0  0  0  0  0  0  0  0  0
    3.4632   -0.4365   -0.1878 C   0  0  0  0  0  0  0  0  0  0  0  0
    3.2503   -1.5099    0.6004 C   0  0  0  0  0  0  0  0  0  0  0  0
   -1.3095    1.7716    0.5036 C   0  0  0  0  0  0  0  0  0  0  0  0
    4.4913   -0.4134   -1.2355 C   0  0  0  0  0  0  0  0  0  0  0  0
   -2.5646    1.5166   -0.3239 C   0  0  1  0  0  0  0  0  0  0  0  0
   -2.8426    0.0323   -0.4398 C   0  0  0  0  0  0  0  0  0  0  0  0
   -2.2956   -0.6757   -1.4951 C   0  0  0  0  0  0  0  0  0  0  0  0
   -3.6374   -0.5815    0.5118 C   0  0  0  0  0  0  0  0  0  0  0  0
   -2.5517   -2.0428   -1.6023 C   0  0  0  0  0  0  0  0  0  0  0  0
   -3.8936   -1.9484    0.4047 C   0  0  0  0  0  0  0  0  0  0  0  0
   -3.3508   -2.6791   -0.6523 C   0  0  0  0  0  0  0  0  0  0  0  0
    2.3272    1.1623    1.9911 H   0  0  0  0  0  0  0  0  0  0  0  0
    1.2521    2.9870    0.8263 H   0  0  0  0  0  0  0  0  0  0  0  0
    0.4406   -0.7617    0.4677 H   0  0  0  0  0  0  0  0  0  0  0  0
    0.3710   -0.3941    2.1950 H   0  0  0  0  0  0  0  0  0  0  0  0
    1.6065   -2.5424    1.5597 H   0  0  0  0  0  0  0  0  0  0  0  0
    2.5158   -1.4423    2.6042 H   0  0  0  0  0  0  0  0  0  0  0  0
   -0.2401    1.6857   -1.2730 H   0  0  0  0  0  0  0  0  0  0  0  0
   -2.4325    1.9423   -1.3266 H   0  0  0  0  0  0  0  0  0  0  0  0
   -4.5078    2.1534   -0.2694 H   0  0  0  0  0  0  0  0  0  0  0  0
   -3.4543    3.2407    0.3246 H   0  0  0  0  0  0  0  0  0  0  0  0
    6.3665    0.0729   -1.3875 H   0  0  0  0  0  0  0  0  0  0  0  0
   -1.6717   -0.1899   -2.2396 H   0  0  0  0  0  0  0  0  0  0  0  0
   -4.0589   -0.0447    1.3560 H   0  0  0  0  0  0  0  0  0  0  0  0
   -2.1284   -2.6118   -2.4247 H   0  0  0  0  0  0  0  0  0  0  0  0
   -4.5119   -2.4452    1.1466 H   0  0  0  0  0  0  0  0  0  0  0  0
   -3.5489   -3.7437   -0.7348 H   0  0  0  0  0  0  0  0  0  0  0  0
  1 15  1  0  0  0  0
  2 12  2  0  0  0  0
  3 17  1  0  0  0  0
  3 35  1  0  0  0  0
  4 16  2  0  0  0  0
  5 17  2  0  0  0  0
  6  9  1  0  0  0  0
  6 12  1  0  0  0  0
  6 14  1  0  0  0  0
  7 10  1  0  0  0  0
  7 16  1  0  0  0  0
  7 31  1  0  0  0  0
  8 18  1  0  0  0  0
  8 33  1  0  0  0  0
  8 34  1  0  0  0  0
  9 10  1  6  0  0  0
  9 11  1  0  0  0  0
  9 25  1  0  0  0  0
 10 12  1  0  0  0  0
 10 26  1  1  0  0  0
 11 13  1  0  0  0  0
 11 27  1  0  0  0  0
 11 28  1  0  0  0  0
 13 15  1  0  0  0  0
 13 29  1  0  0  0  0
 13 30  1  0  0  0  0
 14 15  2  0  0  0  0
 14 17  1  0  0  0  0
 16 18  1  0  0  0  0
 18 19  1  0  0  0  0
 18 32  1  6  0  0  0
 19 20  2  0  0  0  0
 19 21  1  0  0  0  0
 20 22  1  0  0  0  0
 20 36  1  0  0  0  0
 21 23  2  0  0  0  0
 21 37  1  0  0  0  0
 22 24  2  0  0  0  0
 22 38  1  0  0  0  0
 23 24  1  0  0  0  0
 23 39  1  0  0  0  0
 24 40  1  0  0  0  0
M  END
