DB00704
 OpenBabel07062211533D

 48 53  0  0  1  0  0  0  0  0999 V2000
   -3.0692   -0.4866   -1.7076 O   0  0  0  0  0  0  0  0  0  0  0  0
   -0.1610    2.6959   -0.1947 O   0  0  0  0  0  0  0  0  0  0  0  0
   -4.6979    1.3207   -0.5226 O   0  0  0  0  0  0  0  0  0  0  0  0
   -4.0557   -3.1651   -1.0849 O   0  0  0  0  0  0  0  0  0  0  0  0
    1.6734    0.6510    0.0907 N   0  0  0  0  0  0  0  0  0  0  0  0
   -1.1179    0.5265   -0.7010 C   0  0  1  0  0  0  0  0  0  0  0  0
   -0.6273    1.4747    0.4031 C   0  0  1  0  0  0  0  0  0  0  0  0
    0.5823    0.7579    1.0942 C   0  0  1  0  0  0  0  0  0  0  0  0
   -2.4852    0.8056   -1.3454 C   0  0  2  0  0  0  0  0  0  0  0  0
    0.0027    0.3257   -1.7485 C   0  0  0  0  0  0  0  0  0  0  0  0
   -1.4667   -0.7952   -0.1086 C   0  0  0  0  0  0  0  0  0  0  0  0
   -1.7610    1.8749    1.3641 C   0  0  0  0  0  0  0  0  0  0  0  0
    1.3275   -0.1244   -1.1049 C   0  0  0  0  0  0  0  0  0  0  0  0
    0.1703   -0.6062    1.7532 C   0  0  0  0  0  0  0  0  0  0  0  0
   -0.8593   -1.3895    0.9812 C   0  0  0  0  0  0  0  0  0  0  0  0
    2.9484    0.2231    0.6560 C   0  0  0  0  0  0  0  0  0  0  0  0
   -2.9352    2.4808    0.5970 C   0  0  0  0  0  0  0  0  0  0  0  0
    4.0567    0.3622   -0.3367 C   0  0  0  0  0  0  0  0  0  0  0  0
   -3.4836    1.4982   -0.4129 C   0  0  0  0  0  0  0  0  0  0  0  0
   -2.5438   -1.3472   -0.7719 C   0  0  0  0  0  0  0  0  0  0  0  0
    5.4373   -0.0530    0.0598 C   0  0  0  0  0  0  0  0  0  0  0  0
    4.6580   -0.8739   -0.9256 C   0  0  0  0  0  0  0  0  0  0  0  0
   -1.3253   -2.6522    1.3472 C   0  0  0  0  0  0  0  0  0  0  0  0
   -3.0093   -2.5977   -0.4369 C   0  0  0  0  0  0  0  0  0  0  0  0
   -2.3805   -3.2570    0.6295 C   0  0  0  0  0  0  0  0  0  0  0  0
    0.9532    1.4211    1.8874 H   0  0  0  0  0  0  0  0  0  0  0  0
   -2.3959    1.4193   -2.2489 H   0  0  0  0  0  0  0  0  0  0  0  0
   -0.2863   -0.4145   -2.5064 H   0  0  0  0  0  0  0  0  0  0  0  0
    0.1693    1.2652   -2.2916 H   0  0  0  0  0  0  0  0  0  0  0  0
   -2.1168    1.0215    1.9513 H   0  0  0  0  0  0  0  0  0  0  0  0
   -1.3926    2.6236    2.0761 H   0  0  0  0  0  0  0  0  0  0  0  0
    1.2802   -1.1959   -0.8732 H   0  0  0  0  0  0  0  0  0  0  0  0
    2.0922   -0.0125   -1.8819 H   0  0  0  0  0  0  0  0  0  0  0  0
   -0.2681   -0.3772    2.7337 H   0  0  0  0  0  0  0  0  0  0  0  0
    1.0396   -1.2399    1.9507 H   0  0  0  0  0  0  0  0  0  0  0  0
    3.1939    0.8661    1.5105 H   0  0  0  0  0  0  0  0  0  0  0  0
    2.9030   -0.8045    1.0336 H   0  0  0  0  0  0  0  0  0  0  0  0
   -2.6631    3.4041    0.0772 H   0  0  0  0  0  0  0  0  0  0  0  0
   -3.7335    2.7285    1.3060 H   0  0  0  0  0  0  0  0  0  0  0  0
    3.9927    1.2615   -0.9386 H   0  0  0  0  0  0  0  0  0  0  0  0
    5.5931   -0.4673    1.0484 H   0  0  0  0  0  0  0  0  0  0  0  0
    6.2693    0.5293   -0.3172 H   0  0  0  0  0  0  0  0  0  0  0  0
    4.9622   -0.8386   -1.9646 H   0  0  0  0  0  0  0  0  0  0  0  0
    4.2987   -1.8425   -0.6007 H   0  0  0  0  0  0  0  0  0  0  0  0
   -0.7933    2.9694   -0.8797 H   0  0  0  0  0  0  0  0  0  0  0  0
   -0.8930   -3.1724    2.1976 H   0  0  0  0  0  0  0  0  0  0  0  0
   -2.7272   -4.2417    0.9350 H   0  0  0  0  0  0  0  0  0  0  0  0
   -4.3553   -2.5517   -1.7783 H   0  0  0  0  0  0  0  0  0  0  0  0
  1  9  1  0  0  0  0
  1 20  1  0  0  0  0
  2  7  1  0  0  0  0
  2 45  1  0  0  0  0
  3 19  2  0  0  0  0
  4 24  1  0  0  0  0
  4 48  1  0  0  0  0
  5  8  1  0  0  0  0
  5 13  1  0  0  0  0
  5 16  1  0  0  0  0
  6  7  1  1  0  0  0
  6 10  1  0  0  0  0
  6 11  1  0  0  0  0
  7  8  1  1  0  0  0
  7 12  1  0  0  0  0
  8 14  1  0  0  0  0
  8 26  1  1  0  0  0
  9  6  1  1  0  0  0
  9 19  1  0  0  0  0
  9 27  1  0  0  0  0
 10 13  1  0  0  0  0
 10 28  1  0  0  0  0
 10 29  1  0  0  0  0
 11 15  2  0  0  0  0
 11 20  1  0  0  0  0
 12 17  1  0  0  0  0
 12 30  1  0  0  0  0
 12 31  1  0  0  0  0
 13 32  1  0  0  0  0
 13 33  1  0  0  0  0
 14 15  1  0  0  0  0
 14 34  1  0  0  0  0
 14 35  1  0  0  0  0
 15 23  1  0  0  0  0
 16 18  1  0  0  0  0
 16 36  1  0  0  0  0
 16 37  1  0  0  0  0
 17 19  1  0  0  0  0
 17 38  1  0  0  0  0
 17 39  1  0  0  0  0
 18 21  1  0  0  0  0
 18 22  1  0  0  0  0
 18 40  1  0  0  0  0
 20 24  2  0  0  0  0
 21 22  1  0  0  0  0
 21 41  1  0  0  0  0
 21 42  1  0  0  0  0
 22 43  1  0  0  0  0
 22 44  1  0  0  0  0
 23 25  2  0  0  0  0
 23 46  1  0  0  0  0
 24 25  1  0  0  0  0
 25 47  1  0  0  0  0
M  END
