DB00770
 OpenBabel07062211533D

 59 59  0  0  1  0  0  0  0  0999 V2000
    5.6641    0.1821   -0.0899 O   0  0  0  0  0  0  0  0  0  0  0  0
    3.0595   -3.7221   -0.2984 O   0  0  0  0  0  0  0  0  0  0  0  0
    2.8504    4.4460    0.4643 O   0  0  0  0  0  0  0  0  0  0  0  0
   -4.7533   -0.4741    1.9320 O   0  0  0  0  0  0  0  0  0  0  0  0
   -4.0708   -2.4342    2.8534 O   0  0  0  0  0  0  0  0  0  0  0  0
    2.3816   -1.4326    0.1392 C   0  0  1  0  0  0  0  0  0  0  0  0
    3.2726   -0.2006   -0.0815 C   0  0  2  0  0  0  0  0  0  0  0  0
    4.6423   -0.6372    0.4554 C   0  0  1  0  0  0  0  0  0  0  0  0
    4.7995   -2.0787   -0.0234 C   0  0  0  0  0  0  0  0  0  0  0  0
    1.1971   -1.4974   -0.8090 C   0  0  0  0  0  0  0  0  0  0  0  0
    3.3718   -2.5561   -0.0911 C   0  0  0  0  0  0  0  0  0  0  0  0
    0.1438   -2.4953   -0.3245 C   0  0  0  0  0  0  0  0  0  0  0  0
    2.7433    1.0213    0.5984 C   0  0  0  0  0  0  0  0  0  0  0  0
   -1.0287   -2.5834   -1.3035 C   0  0  0  0  0  0  0  0  0  0  0  0
    2.4399    2.1597   -0.0422 C   0  0  0  0  0  0  0  0  0  0  0  0
   -2.1190   -3.5648   -0.8627 C   0  0  0  0  0  0  0  0  0  0  0  0
    1.9093    3.3862    0.6457 C   0  0  2  0  0  0  0  0  0  0  0  0
    0.5671    3.8595    0.0713 C   0  0  0  0  0  0  0  0  0  0  0  0
   -2.7700   -3.2732    0.4923 C   0  0  0  0  0  0  0  0  0  0  0  0
   -0.5205    2.7821    0.1111 C   0  0  0  0  0  0  0  0  0  0  0  0
   -3.5045   -1.9338    0.5385 C   0  0  0  0  0  0  0  0  0  0  0  0
   -1.8383    3.2249   -0.5331 C   0  0  0  0  0  0  0  0  0  0  0  0
   -2.9480    2.1777   -0.4324 C   0  0  0  0  0  0  0  0  0  0  0  0
   -4.1222   -1.6770    1.8944 C   0  0  0  0  0  0  0  0  0  0  0  0
   -4.2288    2.6621   -1.0955 C   0  0  0  0  0  0  0  0  0  0  0  0
    2.0594   -1.4871    1.1874 H   0  0  0  0  0  0  0  0  0  0  0  0
    3.3703   -0.0038   -1.1599 H   0  0  0  0  0  0  0  0  0  0  0  0
    4.6856   -0.5816    1.5503 H   0  0  0  0  0  0  0  0  0  0  0  0
    5.2563   -2.1378   -1.0157 H   0  0  0  0  0  0  0  0  0  0  0  0
    5.3745   -2.6733    0.6906 H   0  0  0  0  0  0  0  0  0  0  0  0
    0.7258   -0.5104   -0.8886 H   0  0  0  0  0  0  0  0  0  0  0  0
    1.5294   -1.7749   -1.8173 H   0  0  0  0  0  0  0  0  0  0  0  0
   -0.2126   -2.1707    0.6593 H   0  0  0  0  0  0  0  0  0  0  0  0
    0.5765   -3.4927   -0.1979 H   0  0  0  0  0  0  0  0  0  0  0  0
    2.5994    0.9670    1.6752 H   0  0  0  0  0  0  0  0  0  0  0  0
   -0.6534   -2.9057   -2.2829 H   0  0  0  0  0  0  0  0  0  0  0  0
   -1.4631   -1.5885   -1.4547 H   0  0  0  0  0  0  0  0  0  0  0  0
    6.5162   -0.1774    0.2108 H   0  0  0  0  0  0  0  0  0  0  0  0
    2.5863    2.2228   -1.1180 H   0  0  0  0  0  0  0  0  0  0  0  0
   -2.8983   -3.5888   -1.6345 H   0  0  0  0  0  0  0  0  0  0  0  0
   -1.6896   -4.5740   -0.8281 H   0  0  0  0  0  0  0  0  0  0  0  0
    1.8006    3.2223    1.7243 H   0  0  0  0  0  0  0  0  0  0  0  0
    0.2335    4.7479    0.6229 H   0  0  0  0  0  0  0  0  0  0  0  0
    0.7112    4.1970   -0.9641 H   0  0  0  0  0  0  0  0  0  0  0  0
   -3.4868   -4.0768    0.7067 H   0  0  0  0  0  0  0  0  0  0  0  0
   -2.0230   -3.3245    1.2925 H   0  0  0  0  0  0  0  0  0  0  0  0
   -0.7046    2.4991    1.1549 H   0  0  0  0  0  0  0  0  0  0  0  0
   -0.1817    1.8784   -0.4078 H   0  0  0  0  0  0  0  0  0  0  0  0
   -1.6569    3.4628   -1.5888 H   0  0  0  0  0  0  0  0  0  0  0  0
   -2.1757    4.1524   -0.0536 H   0  0  0  0  0  0  0  0  0  0  0  0
   -4.3018   -1.9189   -0.2123 H   0  0  0  0  0  0  0  0  0  0  0  0
   -2.8078   -1.1133    0.3400 H   0  0  0  0  0  0  0  0  0  0  0  0
    3.6892    4.1682    0.8711 H   0  0  0  0  0  0  0  0  0  0  0  0
   -3.1488    1.9488    0.6204 H   0  0  0  0  0  0  0  0  0  0  0  0
   -2.6232    1.2468   -0.9114 H   0  0  0  0  0  0  0  0  0  0  0  0
   -4.5957    3.5767   -0.6189 H   0  0  0  0  0  0  0  0  0  0  0  0
   -4.0668    2.8685   -2.1582 H   0  0  0  0  0  0  0  0  0  0  0  0
   -5.0090    1.8989   -1.0125 H   0  0  0  0  0  0  0  0  0  0  0  0
   -5.1536   -0.2987    2.8102 H   0  0  0  0  0  0  0  0  0  0  0  0
  1  8  1  0  0  0  0
  1 38  1  0  0  0  0
  2 11  2  0  0  0  0
  3 17  1  0  0  0  0
  3 53  1  0  0  0  0
  4 24  1  0  0  0  0
  4 59  1  0  0  0  0
  5 24  2  0  0  0  0
  6  7  1  6  0  0  0
  6 10  1  0  0  0  0
  6 11  1  0  0  0  0
  6 26  1  0  0  0  0
  7  8  1  1  0  0  0
  7 13  1  0  0  0  0
  7 27  1  0  0  0  0
  8  9  1  0  0  0  0
  8 28  1  1  0  0  0
  9 11  1  0  0  0  0
  9 29  1  0  0  0  0
  9 30  1  0  0  0  0
 10 12  1  0  0  0  0
 10 31  1  0  0  0  0
 10 32  1  0  0  0  0
 12 14  1  0  0  0  0
 12 33  1  0  0  0  0
 12 34  1  0  0  0  0
 13 15  2  0  0  0  0
 13 35  1  0  0  0  0
 14 16  1  0  0  0  0
 14 36  1  0  0  0  0
 14 37  1  0  0  0  0
 15 17  1  0  0  0  0
 15 39  1  0  0  0  0
 16 19  1  0  0  0  0
 16 40  1  0  0  0  0
 16 41  1  0  0  0  0
 17 18  1  0  0  0  0
 17 42  1  1  0  0  0
 18 20  1  0  0  0  0
 18 43  1  0  0  0  0
 18 44  1  0  0  0  0
 19 21  1  0  0  0  0
 19 45  1  0  0  0  0
 19 46  1  0  0  0  0
 20 22  1  0  0  0  0
 20 47  1  0  0  0  0
 20 48  1  0  0  0  0
 21 24  1  0  0  0  0
 21 51  1  0  0  0  0
 21 52  1  0  0  0  0
 22 23  1  0  0  0  0
 22 49  1  0  0  0  0
 22 50  1  0  0  0  0
 23 25  1  0  0  0  0
 23 54  1  0  0  0  0
 23 55  1  0  0  0  0
 25 56  1  0  0  0  0
 25 57  1  0  0  0  0
 25 58  1  0  0  0  0
M  END
