DB00161
 OpenBabel07062211533D

 19 18  0  0  1  0  0  0  0  0999 V2000
   -3.0041    0.6122    0.0845 O   0  0  0  0  0  0  0  0  0  0  0  0
   -1.4727    1.9519    1.1212 O   0  0  0  0  0  0  0  0  0  0  0  0
   -1.0468   -1.2183   -0.6059 N   0  3  0  0  0  0  0  0  0  0  0  0
    0.6091    0.3413    0.4337 C   0  0  0  0  0  0  0  0  0  0  0  0
   -0.8220   -0.2379    0.4996 C   0  0  1  0  0  0  0  0  0  0  0  0
    1.6769   -0.7584    0.4372 C   0  0  0  0  0  0  0  0  0  0  0  0
    0.8319    1.2742   -0.7620 C   0  0  0  0  0  0  0  0  0  0  0  0
   -1.8706    0.8854    0.5701 C   0  0  0  0  0  0  0  0  0  0  0  0
    0.7790    0.9339    1.3430 H   0  0  0  0  0  0  0  0  0  0  0  0
   -0.9304   -0.8257    1.4196 H   0  0  0  0  0  0  0  0  0  0  0  0
    1.5141   -1.4589    1.2629 H   0  0  0  0  0  0  0  0  0  0  0  0
    2.6732   -0.3211    0.5662 H   0  0  0  0  0  0  0  0  0  0  0  0
    1.6888   -1.3240   -0.5001 H   0  0  0  0  0  0  0  0  0  0  0  0
    1.8469    1.6869   -0.7351 H   0  0  0  0  0  0  0  0  0  0  0  0
    0.1439    2.1229   -0.7743 H   0  0  0  0  0  0  0  0  0  0  0  0
    0.7232    0.7407   -1.7120 H   0  0  0  0  0  0  0  0  0  0  0  0
   -2.0032   -1.5956   -0.5683 H   0  0  0  0  0  0  0  0  0  0  0  0
   -0.4085   -2.0223   -0.5485 H   0  0  0  0  0  0  0  0  0  0  0  0
   -0.9287   -0.7874   -1.5320 H   0  0  0  0  0  0  0  0  0  0  0  0
  1  8  2  0  0  0  0
  2  8  1  0  0  0  0
  3  5  1  0  0  0  0
  3 17  1  0  0  0  0
  3 18  1  0  0  0  0
  3 19  1  0  0  0  0
  4  5  1  0  0  0  0
  4  6  1  0  0  0  0
  4  7  1  0  0  0  0
  4  9  1  0  0  0  0
  5  8  1  0  0  0  0
  5 10  1  1  0  0  0
  6 11  1  0  0  0  0
  6 12  1  0  0  0  0
  6 13  1  0  0  0  0
  7 14  1  0  0  0  0
  7 15  1  0  0  0  0
  7 16  1  0  0  0  0
M  CHG  1   3   1
M  END
