DB00992
 OpenBabel07062211533D

 21 20  0  0  0  0  0  0  0  0999 V2000
   -3.0764    0.6355    0.0527 O   0  0  0  0  0  0  0  0  0  0  0  0
    1.8467    1.6349    0.2300 O   0  0  0  0  0  0  0  0  0  0  0  0
   -2.1164   -1.4527   -0.1458 O   0  0  0  0  0  0  0  0  0  0  0  0
    4.2384    0.4086    0.1777 N   0  0  0  0  0  0  0  0  0  0  0  0
    0.4995   -0.3542   -0.0079 C   0  0  0  0  0  0  0  0  0  0  0  0
   -0.7343    0.5418    0.0552 C   0  0  0  0  0  0  0  0  0  0  0  0
    1.8121    0.4107    0.1127 C   0  0  0  0  0  0  0  0  0  0  0  0
    3.0647   -0.4450    0.0666 C   0  0  0  0  0  0  0  0  0  0  0  0
   -2.0288   -0.2386   -0.0244 C   0  0  0  0  0  0  0  0  0  0  0  0
   -4.3781    0.0448   -0.0181 C   0  0  0  0  0  0  0  0  0  0  0  0
    0.4652   -1.0899    0.8040 H   0  0  0  0  0  0  0  0  0  0  0  0
    0.5130   -0.9000   -0.9584 H   0  0  0  0  0  0  0  0  0  0  0  0
   -0.7326    1.1033    0.9968 H   0  0  0  0  0  0  0  0  0  0  0  0
   -0.7128    1.2568   -0.7754 H   0  0  0  0  0  0  0  0  0  0  0  0
    3.0391   -1.1490    0.9032 H   0  0  0  0  0  0  0  0  0  0  0  0
    3.0878   -0.9962   -0.8779 H   0  0  0  0  0  0  0  0  0  0  0  0
    4.2885    1.0283   -0.6302 H   0  0  0  0  0  0  0  0  0  0  0  0
    5.0783   -0.1677    0.1429 H   0  0  0  0  0  0  0  0  0  0  0  0
   -5.1191    0.8452    0.0546 H   0  0  0  0  0  0  0  0  0  0  0  0
   -4.5257   -0.6472    0.8166 H   0  0  0  0  0  0  0  0  0  0  0  0
   -4.5091   -0.4693   -0.9750 H   0  0  0  0  0  0  0  0  0  0  0  0
  1  9  1  0  0  0  0
  1 10  1  0  0  0  0
  2  7  2  0  0  0  0
  3  9  2  0  0  0  0
  4  8  1  0  0  0  0
  4 17  1  0  0  0  0
  4 18  1  0  0  0  0
  5  6  1  0  0  0  0
  5  7  1  0  0  0  0
  5 11  1  0  0  0  0
  5 12  1  0  0  0  0
  6  9  1  0  0  0  0
  6 13  1  0  0  0  0
  6 14  1  0  0  0  0
  7  8  1  0  0  0  0
  8 15  1  0  0  0  0
  8 16  1  0  0  0  0
 10 19  1  0  0  0  0
 10 20  1  0  0  0  0
 10 21  1  0  0  0  0
M  END
