DB00991
 OpenBabel07062211533D

 37 39  0  0  0  0  0  0  0  0999 V2000
    1.2581    0.7750    0.5615 O   0  0  0  0  0  0  0  0  0  0  0  0
    6.3665   -0.3363   -1.1649 O   0  0  0  0  0  0  0  0  0  0  0  0
    6.0751   -0.4551    1.0865 O   0  0  0  0  0  0  0  0  0  0  0  0
    1.0217   -1.4729    0.4866 N   0  0  0  0  0  0  0  0  0  0  0  0
   -0.0502    0.4950    0.3064 C   0  0  0  0  0  0  0  0  0  0  0  0
   -0.1838   -0.8667    0.2625 C   0  0  0  0  0  0  0  0  0  0  0  0
    1.8343   -0.4545    0.6562 C   0  0  0  0  0  0  0  0  0  0  0  0
    3.2785   -0.4701    0.9341 C   0  0  0  0  0  0  0  0  0  0  0  0
   -0.9145    1.6299    0.1557 C   0  0  0  0  0  0  0  0  0  0  0  0
   -1.4052   -1.5816    0.0186 C   0  0  0  0  0  0  0  0  0  0  0  0
    4.1319   -0.4585   -0.3468 C   0  0  0  0  0  0  0  0  0  0  0  0
   -2.2648    1.5407    0.5104 C   0  0  0  0  0  0  0  0  0  0  0  0
   -0.4147    2.8356   -0.3483 C   0  0  0  0  0  0  0  0  0  0  0  0
   -1.7708   -1.9129   -1.2861 C   0  0  0  0  0  0  0  0  0  0  0  0
   -2.2263   -1.9441    1.0863 C   0  0  0  0  0  0  0  0  0  0  0  0
   -3.1052    2.6441    0.3631 C   0  0  0  0  0  0  0  0  0  0  0  0
   -1.2551    3.9390   -0.4954 C   0  0  0  0  0  0  0  0  0  0  0  0
   -2.9574   -2.6070   -1.5229 C   0  0  0  0  0  0  0  0  0  0  0  0
   -3.4128   -2.6383    0.8495 C   0  0  0  0  0  0  0  0  0  0  0  0
    5.6071   -0.4130   -0.0437 C   0  0  0  0  0  0  0  0  0  0  0  0
   -2.6004    3.8433   -0.1396 C   0  0  0  0  0  0  0  0  0  0  0  0
   -3.7783   -2.9698   -0.4551 C   0  0  0  0  0  0  0  0  0  0  0  0
    3.5213   -1.3623    1.5248 H   0  0  0  0  0  0  0  0  0  0  0  0
    3.5425    0.3905    1.5616 H   0  0  0  0  0  0  0  0  0  0  0  0
    3.9280   -1.3580   -0.9389 H   0  0  0  0  0  0  0  0  0  0  0  0
    3.8802    0.4219   -0.9497 H   0  0  0  0  0  0  0  0  0  0  0  0
   -2.6970    0.6446    0.9368 H   0  0  0  0  0  0  0  0  0  0  0  0
    0.6281    2.9370   -0.6407 H   0  0  0  0  0  0  0  0  0  0  0  0
   -1.1420   -1.6374   -2.1295 H   0  0  0  0  0  0  0  0  0  0  0  0
   -1.9550   -1.6952    2.1097 H   0  0  0  0  0  0  0  0  0  0  0  0
   -4.1512    2.5726    0.6470 H   0  0  0  0  0  0  0  0  0  0  0  0
   -0.8627    4.8724   -0.8883 H   0  0  0  0  0  0  0  0  0  0  0  0
   -3.2424   -2.8648   -2.5387 H   0  0  0  0  0  0  0  0  0  0  0  0
   -4.0519   -2.9208    1.6809 H   0  0  0  0  0  0  0  0  0  0  0  0
   -3.2546    4.7028   -0.2528 H   0  0  0  0  0  0  0  0  0  0  0  0
   -4.7021   -3.5102   -0.6396 H   0  0  0  0  0  0  0  0  0  0  0  0
    7.3250   -0.3145   -0.9572 H   0  0  0  0  0  0  0  0  0  0  0  0
  1  5  1  0  0  0  0
  1  7  1  0  0  0  0
  2 20  1  0  0  0  0
  2 37  1  0  0  0  0
  3 20  2  0  0  0  0
  4  6  1  0  0  0  0
  4  7  2  0  0  0  0
  5  6  2  0  0  0  0
  5  9  1  0  0  0  0
  6 10  1  0  0  0  0
  7  8  1  0  0  0  0
  8 11  1  0  0  0  0
  8 23  1  0  0  0  0
  8 24  1  0  0  0  0
  9 12  2  0  0  0  0
  9 13  1  0  0  0  0
 10 14  2  0  0  0  0
 10 15  1  0  0  0  0
 11 20  1  0  0  0  0
 11 25  1  0  0  0  0
 11 26  1  0  0  0  0
 12 16  1  0  0  0  0
 12 27  1  0  0  0  0
 13 17  2  0  0  0  0
 13 28  1  0  0  0  0
 14 18  1  0  0  0  0
 14 29  1  0  0  0  0
 15 19  2  0  0  0  0
 15 30  1  0  0  0  0
 16 21  2  0  0  0  0
 16 31  1  0  0  0  0
 17 21  1  0  0  0  0
 17 32  1  0  0  0  0
 18 22  2  0  0  0  0
 18 33  1  0  0  0  0
 19 22  1  0  0  0  0
 19 34  1  0  0  0  0
 21 35  1  0  0  0  0
 22 36  1  0  0  0  0
M  END
