DB00193
 OpenBabel07062211533D

 44 45  0  0  1  0  0  0  0  0999 V2000
   -0.9959    1.4362    1.8731 O   0  0  0  0  0  0  0  0  0  0  0  0
    3.7858   -0.0782   -1.5680 O   0  0  0  0  0  0  0  0  0  0  0  0
   -2.0758   -2.2692    0.0239 N   0  0  0  0  0  0  0  0  0  0  0  0
   -1.3411    0.0729   -0.0851 C   0  0  2  0  0  0  0  0  0  0  0  0
   -0.4624    1.1885    0.5620 C   0  0  1  0  0  0  0  0  0  0  0  0
   -2.7986    0.5422   -0.2694 C   0  0  0  0  0  0  0  0  0  0  0  0
   -0.5954    2.5080   -0.2395 C   0  0  0  0  0  0  0  0  0  0  0  0
   -2.8855    1.8465   -1.0550 C   0  0  0  0  0  0  0  0  0  0  0  0
   -2.0498    2.9457   -0.4127 C   0  0  0  0  0  0  0  0  0  0  0  0
   -1.3434   -1.2311    0.7268 C   0  0  0  0  0  0  0  0  0  0  0  0
    1.0123    0.7778    0.6515 C   0  0  0  0  0  0  0  0  0  0  0  0
    1.7338    0.5339   -0.5135 C   0  0  0  0  0  0  0  0  0  0  0  0
    1.6205    0.6523    1.8971 C   0  0  0  0  0  0  0  0  0  0  0  0
   -2.0813   -3.5166    0.7945 C   0  0  0  0  0  0  0  0  0  0  0  0
   -1.5037   -2.5025   -1.3056 C   0  0  0  0  0  0  0  0  0  0  0  0
    3.0754    0.1608   -0.4320 C   0  0  0  0  0  0  0  0  0  0  0  0
    2.9620    0.2795    1.9785 C   0  0  0  0  0  0  0  0  0  0  0  0
    3.6896    0.0339    0.8141 C   0  0  0  0  0  0  0  0  0  0  0  0
    5.1531   -0.4548   -1.4118 C   0  0  0  0  0  0  0  0  0  0  0  0
   -0.9201   -0.0950   -1.0823 H   0  0  0  0  0  0  0  0  0  0  0  0
   -3.2785    0.6797    0.7081 H   0  0  0  0  0  0  0  0  0  0  0  0
   -3.3918   -0.2077   -0.8046 H   0  0  0  0  0  0  0  0  0  0  0  0
   -0.1485    2.4109   -1.2364 H   0  0  0  0  0  0  0  0  0  0  0  0
   -0.0529    3.3147    0.2707 H   0  0  0  0  0  0  0  0  0  0  0  0
   -3.9309    2.1693   -1.1177 H   0  0  0  0  0  0  0  0  0  0  0  0
   -2.5418    1.6775   -2.0831 H   0  0  0  0  0  0  0  0  0  0  0  0
   -2.0884    3.8470   -1.0352 H   0  0  0  0  0  0  0  0  0  0  0  0
   -2.4783    3.2157    0.5600 H   0  0  0  0  0  0  0  0  0  0  0  0
   -1.8079   -1.0519    1.7048 H   0  0  0  0  0  0  0  0  0  0  0  0
   -0.3157   -1.5619    0.9209 H   0  0  0  0  0  0  0  0  0  0  0  0
   -0.6235    2.2720    2.2029 H   0  0  0  0  0  0  0  0  0  0  0  0
    1.2720    0.6225   -1.4929 H   0  0  0  0  0  0  0  0  0  0  0  0
    1.0877    0.8288    2.8262 H   0  0  0  0  0  0  0  0  0  0  0  0
   -2.5298   -3.3564    1.7814 H   0  0  0  0  0  0  0  0  0  0  0  0
   -1.0718   -3.9198    0.9348 H   0  0  0  0  0  0  0  0  0  0  0  0
   -2.6918   -4.2763    0.2940 H   0  0  0  0  0  0  0  0  0  0  0  0
   -1.7602   -1.7088   -2.0136 H   0  0  0  0  0  0  0  0  0  0  0  0
   -1.9307   -3.4112   -1.7485 H   0  0  0  0  0  0  0  0  0  0  0  0
   -0.4155   -2.6320   -1.2779 H   0  0  0  0  0  0  0  0  0  0  0  0
    3.4393    0.1791    2.9491 H   0  0  0  0  0  0  0  0  0  0  0  0
    4.7269   -0.2522    0.9501 H   0  0  0  0  0  0  0  0  0  0  0  0
    5.5637   -0.6052   -2.4156 H   0  0  0  0  0  0  0  0  0  0  0  0
    5.2499   -1.4079   -0.8807 H   0  0  0  0  0  0  0  0  0  0  0  0
    5.7392    0.3430   -0.9430 H   0  0  0  0  0  0  0  0  0  0  0  0
  1 31  1  0  0  0  0
  2 16  1  0  0  0  0
  2 19  1  0  0  0  0
  3 10  1  0  0  0  0
  3 14  1  0  0  0  0
  3 15  1  0  0  0  0
  4  5  1  1  0  0  0
  4  6  1  0  0  0  0
  4 10  1  0  0  0  0
  4 20  1  0  0  0  0
  5  1  1  1  0  0  0
  5  7  1  0  0  0  0
  5 11  1  0  0  0  0
  6  8  1  0  0  0  0
  6 21  1  0  0  0  0
  6 22  1  0  0  0  0
  7  9  1  0  0  0  0
  7 23  1  0  0  0  0
  7 24  1  0  0  0  0
  8  9  1  0  0  0  0
  8 25  1  0  0  0  0
  8 26  1  0  0  0  0
  9 27  1  0  0  0  0
  9 28  1  0  0  0  0
 10 29  1  0  0  0  0
 10 30  1  0  0  0  0
 11 12  2  0  0  0  0
 11 13  1  0  0  0  0
 12 16  1  0  0  0  0
 12 32  1  0  0  0  0
 13 17  2  0  0  0  0
 13 33  1  0  0  0  0
 14 34  1  0  0  0  0
 14 35  1  0  0  0  0
 14 36  1  0  0  0  0
 15 37  1  0  0  0  0
 15 38  1  0  0  0  0
 15 39  1  0  0  0  0
 16 18  2  0  0  0  0
 17 18  1  0  0  0  0
 17 40  1  0  0  0  0
 18 41  1  0  0  0  0
 19 42  1  0  0  0  0
 19 43  1  0  0  0  0
 19 44  1  0  0  0  0
M  END
