DB00219
 OpenBabel07062211533D

 59 60  0  0  1  0  0  0  0  0999 V2000
    2.8182    0.0013    2.1042 O   0  0  0  0  0  0  0  0  0  0  0  0
   -0.1752   -0.7893    0.2885 O   0  0  0  0  0  0  0  0  0  0  0  0
    0.1781   -0.0629    2.4470 O   0  0  0  0  0  0  0  0  0  0  0  0
   -3.7762   -0.0058   -0.1037 N   0  3  0  0  0  0  0  0  0  0  0  0
    2.2876    0.7928   -0.0725 C   0  0  0  0  0  0  0  0  0  0  0  0
    1.7323    2.1149    0.4746 C   0  0  0  0  0  0  0  0  0  0  0  0
    3.7753    0.9285   -0.4232 C   0  0  0  0  0  0  0  0  0  0  0  0
    2.0706   -0.3393    0.9299 C   0  0  1  0  0  0  0  0  0  0  0  0
    1.9849    3.2734   -0.4873 C   0  0  0  0  0  0  0  0  0  0  0  0
    4.0246    2.0893   -1.3835 C   0  0  0  0  0  0  0  0  0  0  0  0
    3.4636    3.3997   -0.8404 C   0  0  0  0  0  0  0  0  0  0  0  0
    2.5402   -1.7267    0.5018 C   0  0  0  0  0  0  0  0  0  0  0  0
   -2.3231    0.0515   -0.4025 C   0  0  0  0  0  0  0  0  0  0  0  0
    0.5951   -0.3683    1.3363 C   0  0  0  0  0  0  0  0  0  0  0  0
   -4.3173   -1.4279   -0.3040 C   0  0  0  0  0  0  0  0  0  0  0  0
   -4.0507    0.4096    1.3479 C   0  0  0  0  0  0  0  0  0  0  0  0
   -1.5803   -0.8676    0.5472 C   0  0  0  0  0  0  0  0  0  0  0  0
   -4.5596    0.9376   -1.0266 C   0  0  0  0  0  0  0  0  0  0  0  0
    2.4361   -2.1172   -0.8334 C   0  0  0  0  0  0  0  0  0  0  0  0
    3.0741   -2.6045    1.4453 C   0  0  0  0  0  0  0  0  0  0  0  0
   -4.1292   -1.8338   -1.7493 C   0  0  0  0  0  0  0  0  0  0  0  0
   -3.5964    1.8385    1.5517 C   0  0  0  0  0  0  0  0  0  0  0  0
    2.8656   -3.3852   -1.2249 C   0  0  0  0  0  0  0  0  0  0  0  0
    3.5035   -3.8725    1.0537 C   0  0  0  0  0  0  0  0  0  0  0  0
    3.3992   -4.2628   -0.2814 C   0  0  0  0  0  0  0  0  0  0  0  0
    1.7376    0.5887   -1.0009 H   0  0  0  0  0  0  0  0  0  0  0  0
    2.1946    2.3765    1.4331 H   0  0  0  0  0  0  0  0  0  0  0  0
    0.6515    2.0557    0.6433 H   0  0  0  0  0  0  0  0  0  0  0  0
    4.1650    0.0173   -0.8876 H   0  0  0  0  0  0  0  0  0  0  0  0
    4.3715    1.0989    0.4822 H   0  0  0  0  0  0  0  0  0  0  0  0
    1.4023    3.1201   -1.4042 H   0  0  0  0  0  0  0  0  0  0  0  0
    1.6325    4.2093   -0.0390 H   0  0  0  0  0  0  0  0  0  0  0  0
    5.1008    2.1958   -1.5619 H   0  0  0  0  0  0  0  0  0  0  0  0
    3.5610    1.8669   -2.3525 H   0  0  0  0  0  0  0  0  0  0  0  0
    4.0279    3.6959    0.0524 H   0  0  0  0  0  0  0  0  0  0  0  0
    3.5992    4.1946   -1.5822 H   0  0  0  0  0  0  0  0  0  0  0  0
   -1.9617    1.0817   -0.3204 H   0  0  0  0  0  0  0  0  0  0  0  0
   -2.1327   -0.2093   -1.4479 H   0  0  0  0  0  0  0  0  0  0  0  0
   -3.8410   -2.1141    0.4006 H   0  0  0  0  0  0  0  0  0  0  0  0
   -5.3869   -1.4042   -0.0614 H   0  0  0  0  0  0  0  0  0  0  0  0
   -5.1372    0.3525    1.4932 H   0  0  0  0  0  0  0  0  0  0  0  0
   -3.6092   -0.2999    2.0499 H   0  0  0  0  0  0  0  0  0  0  0  0
   -1.8239   -1.9161    0.3589 H   0  0  0  0  0  0  0  0  0  0  0  0
   -1.7825   -0.6786    1.5992 H   0  0  0  0  0  0  0  0  0  0  0  0
   -5.6241    0.8719   -0.7850 H   0  0  0  0  0  0  0  0  0  0  0  0
   -4.3732    0.6726   -2.0691 H   0  0  0  0  0  0  0  0  0  0  0  0
   -4.1896    1.9581   -0.9130 H   0  0  0  0  0  0  0  0  0  0  0  0
    2.3599    0.7120    2.5819 H   0  0  0  0  0  0  0  0  0  0  0  0
    2.0111   -1.4678   -1.5917 H   0  0  0  0  0  0  0  0  0  0  0  0
    3.1542   -2.3395    2.4957 H   0  0  0  0  0  0  0  0  0  0  0  0
   -4.4909   -2.8649   -1.8543 H   0  0  0  0  0  0  0  0  0  0  0  0
   -3.0894   -1.8623   -2.0802 H   0  0  0  0  0  0  0  0  0  0  0  0
   -4.7267   -1.2568   -2.4581 H   0  0  0  0  0  0  0  0  0  0  0  0
   -2.5280    1.9981    1.3949 H   0  0  0  0  0  0  0  0  0  0  0  0
   -4.1676    2.5769    0.9852 H   0  0  0  0  0  0  0  0  0  0  0  0
   -3.7736    2.0965    2.6037 H   0  0  0  0  0  0  0  0  0  0  0  0
    2.7807   -3.6910   -2.2635 H   0  0  0  0  0  0  0  0  0  0  0  0
    3.9153   -4.5579    1.7888 H   0  0  0  0  0  0  0  0  0  0  0  0
    3.7319   -5.2508   -0.5859 H   0  0  0  0  0  0  0  0  0  0  0  0
  1 48  1  0  0  0  0
  2 14  1  0  0  0  0
  2 17  1  0  0  0  0
  3 14  2  0  0  0  0
  4 13  1  0  0  0  0
  4 15  1  0  0  0  0
  4 16  1  0  0  0  0
  4 18  1  0  0  0  0
  5  6  1  0  0  0  0
  5  7  1  0  0  0  0
  5  8  1  0  0  0  0
  5 26  1  0  0  0  0
  6  9  1  0  0  0  0
  6 27  1  0  0  0  0
  6 28  1  0  0  0  0
  7 10  1  0  0  0  0
  7 29  1  0  0  0  0
  7 30  1  0  0  0  0
  8  1  1  1  0  0  0
  8 12  1  0  0  0  0
  8 14  1  0  0  0  0
  9 11  1  0  0  0  0
  9 31  1  0  0  0  0
  9 32  1  0  0  0  0
 10 11  1  0  0  0  0
 10 33  1  0  0  0  0
 10 34  1  0  0  0  0
 11 35  1  0  0  0  0
 11 36  1  0  0  0  0
 12 19  2  0  0  0  0
 12 20  1  0  0  0  0
 13 17  1  0  0  0  0
 13 37  1  0  0  0  0
 13 38  1  0  0  0  0
 15 21  1  0  0  0  0
 15 39  1  0  0  0  0
 15 40  1  0  0  0  0
 16 22  1  0  0  0  0
 16 41  1  0  0  0  0
 16 42  1  0  0  0  0
 17 43  1  0  0  0  0
 17 44  1  0  0  0  0
 18 45  1  0  0  0  0
 18 46  1  0  0  0  0
 18 47  1  0  0  0  0
 19 23  1  0  0  0  0
 19 49  1  0  0  0  0
 20 24  2  0  0  0  0
 20 50  1  0  0  0  0
 21 51  1  0  0  0  0
 21 52  1  0  0  0  0
 21 53  1  0  0  0  0
 22 54  1  0  0  0  0
 22 55  1  0  0  0  0
 22 56  1  0  0  0  0
 23 25  2  0  0  0  0
 23 57  1  0  0  0  0
 24 25  1  0  0  0  0
 24 58  1  0  0  0  0
 25 59  1  0  0  0  0
M  CHG  1   4   1
M  END
