DB00823
 OpenBabel07062211533D

 60 63  0  0  1  0  0  0  0  0999 V2000
   -4.8782   -0.8273    0.2834 O   0  0  0  0  0  0  0  0  0  0  0  0
    6.0825    0.3657   -0.2904 O   0  0  0  0  0  0  0  0  0  0  0  0
   -6.5263    0.2370   -0.9365 O   0  0  0  0  0  0  0  0  0  0  0  0
    6.9664   -1.4625   -1.3919 O   0  0  0  0  0  0  0  0  0  0  0  0
   -2.4661   -0.3222    0.2304 C   0  0  1  0  0  0  0  0  0  0  0  0
   -1.7206    0.9491   -0.2342 C   0  0  2  0  0  0  0  0  0  0  0  0
   -0.2920    1.0334    0.3112 C   0  0  1  0  0  0  0  0  0  0  0  0
    0.5101   -0.2094   -0.1782 C   0  0  2  0  0  0  0  0  0  0  0  0
   -3.8789   -0.0586   -0.3731 C   0  0  2  0  0  0  0  0  0  0  0  0
   -1.6959   -1.5474   -0.2956 C   0  0  0  0  0  0  0  0  0  0  0  0
   -2.6972    2.0759    0.0940 C   0  0  0  0  0  0  0  0  0  0  0  0
   -0.2216   -1.5355    0.1486 C   0  0  0  0  0  0  0  0  0  0  0  0
    1.9677   -0.1824    0.3703 C   0  0  2  0  0  0  0  0  0  0  0  0
   -4.0949    1.4540   -0.1038 C   0  0  0  0  0  0  0  0  0  0  0  0
    0.4149    2.3230   -0.1294 C   0  0  0  0  0  0  0  0  0  0  0  0
   -2.5820   -0.4464    1.7788 C   0  0  0  0  0  0  0  0  0  0  0  0
    2.6306    1.1579    0.0803 C   0  0  0  0  0  0  0  0  0  0  0  0
    1.8320    2.3860    0.4321 C   0  0  0  0  0  0  0  0  0  0  0  0
    2.7853   -1.3751   -0.1757 C   0  0  0  0  0  0  0  0  0  0  0  0
    4.2830   -1.1729    0.0074 C   0  0  0  0  0  0  0  0  0  0  0  0
   -3.9611   -0.3330   -1.8214 C   0  0  0  0  0  0  0  0  0  0  0  0
    3.8685    1.2630   -0.4353 C   0  0  0  0  0  0  0  0  0  0  0  0
    4.7522    0.0853   -0.7186 C   0  0  1  0  0  0  0  0  0  0  0  0
   -6.1687   -0.5771   -0.0960 C   0  0  0  0  0  0  0  0  0  0  0  0
   -4.0280   -0.5568   -2.9988 C   0  0  0  0  0  0  0  0  0  0  0  0
   -7.1075   -1.4555    0.6743 C   0  0  0  0  0  0  0  0  0  0  0  0
    6.9927   -0.6328   -0.4930 C   0  0  0  0  0  0  0  0  0  0  0  0
    8.0553   -0.5720    0.5620 C   0  0  0  0  0  0  0  0  0  0  0  0
   -1.6313    0.9283   -1.3322 H   0  0  0  0  0  0  0  0  0  0  0  0
   -0.3167    1.0348    1.4080 H   0  0  0  0  0  0  0  0  0  0  0  0
    0.5688   -0.1479   -1.2763 H   0  0  0  0  0  0  0  0  0  0  0  0
   -1.7036   -1.5735   -1.3913 H   0  0  0  0  0  0  0  0  0  0  0  0
   -2.1744   -2.4758    0.0391 H   0  0  0  0  0  0  0  0  0  0  0  0
   -2.5526    2.9412   -0.5614 H   0  0  0  0  0  0  0  0  0  0  0  0
   -2.5785    2.4215    1.1271 H   0  0  0  0  0  0  0  0  0  0  0  0
   -0.1516   -1.7418    1.2226 H   0  0  0  0  0  0  0  0  0  0  0  0
    0.2793   -2.3709   -0.3542 H   0  0  0  0  0  0  0  0  0  0  0  0
    1.9261   -0.2822    1.4646 H   0  0  0  0  0  0  0  0  0  0  0  0
   -4.6969    1.6297    0.7962 H   0  0  0  0  0  0  0  0  0  0  0  0
   -4.6059    1.9623   -0.9307 H   0  0  0  0  0  0  0  0  0  0  0  0
   -0.1409    3.1999    0.2219 H   0  0  0  0  0  0  0  0  0  0  0  0
    0.4460    2.3820   -1.2250 H   0  0  0  0  0  0  0  0  0  0  0  0
   -3.0955   -1.3757    2.0526 H   0  0  0  0  0  0  0  0  0  0  0  0
   -1.6112   -0.4662    2.2801 H   0  0  0  0  0  0  0  0  0  0  0  0
   -3.1485    0.3772    2.2244 H   0  0  0  0  0  0  0  0  0  0  0  0
    1.7868    2.4700    1.5254 H   0  0  0  0  0  0  0  0  0  0  0  0
    2.3186    3.2986    0.0677 H   0  0  0  0  0  0  0  0  0  0  0  0
    2.5742   -1.5239   -1.2428 H   0  0  0  0  0  0  0  0  0  0  0  0
    2.4874   -2.2958    0.3395 H   0  0  0  0  0  0  0  0  0  0  0  0
    4.5225   -1.1126    1.0779 H   0  0  0  0  0  0  0  0  0  0  0  0
    4.7977   -2.0653   -0.3647 H   0  0  0  0  0  0  0  0  0  0  0  0
    4.2825    2.2464   -0.6447 H   0  0  0  0  0  0  0  0  0  0  0  0
    4.7582   -0.0714   -1.8051 H   0  0  0  0  0  0  0  0  0  0  0  0
   -4.0870   -0.7553   -4.0433 H   0  0  0  0  0  0  0  0  0  0  0  0
   -7.0139   -1.2489    1.7433 H   0  0  0  0  0  0  0  0  0  0  0  0
   -6.8884   -2.5052    0.4639 H   0  0  0  0  0  0  0  0  0  0  0  0
   -8.1359   -1.2451    0.3671 H   0  0  0  0  0  0  0  0  0  0  0  0
    7.6056   -0.7097    1.5485 H   0  0  0  0  0  0  0  0  0  0  0  0
    8.5780    0.3861    0.5069 H   0  0  0  0  0  0  0  0  0  0  0  0
    8.7794   -1.3744    0.3942 H   0  0  0  0  0  0  0  0  0  0  0  0
  1  9  1  0  0  0  0
  1 24  1  0  0  0  0
  2 23  1  0  0  0  0
  2 27  1  0  0  0  0
  3 24  2  0  0  0  0
  4 27  2  0  0  0  0
  5  6  1  6  0  0  0
  5 10  1  0  0  0  0
  5 16  1  0  0  0  0
  6  7  1  1  0  0  0
  6 11  1  0  0  0  0
  6 29  1  0  0  0  0
  7  8  1  6  0  0  0
  7 15  1  0  0  0  0
  7 30  1  0  0  0  0
  8 12  1  0  0  0  0
  8 13  1  1  0  0  0
  8 31  1  0  0  0  0
  9  5  1  1  0  0  0
  9 14  1  0  0  0  0
  9 21  1  0  0  0  0
 10 12  1  0  0  0  0
 10 32  1  0  0  0  0
 10 33  1  0  0  0  0
 11 14  1  0  0  0  0
 11 34  1  0  0  0  0
 11 35  1  0  0  0  0
 12 36  1  0  0  0  0
 12 37  1  0  0  0  0
 13 17  1  0  0  0  0
 13 19  1  0  0  0  0
 13 38  1  1  0  0  0
 14 39  1  0  0  0  0
 14 40  1  0  0  0  0
 15 18  1  0  0  0  0
 15 41  1  0  0  0  0
 15 42  1  0  0  0  0
 16 43  1  0  0  0  0
 16 44  1  0  0  0  0
 16 45  1  0  0  0  0
 17 18  1  0  0  0  0
 17 22  2  0  0  0  0
 18 46  1  0  0  0  0
 18 47  1  0  0  0  0
 19 20  1  0  0  0  0
 19 48  1  0  0  0  0
 19 49  1  0  0  0  0
 20 23  1  0  0  0  0
 20 50  1  0  0  0  0
 20 51  1  0  0  0  0
 21 25  3  0  0  0  0
 22 23  1  0  0  0  0
 22 52  1  0  0  0  0
 23 53  1  6  0  0  0
 24 26  1  0  0  0  0
 25 54  1  0  0  0  0
 26 55  1  0  0  0  0
 26 56  1  0  0  0  0
 26 57  1  0  0  0  0
 27 28  1  0  0  0  0
 28 58  1  0  0  0  0
 28 59  1  0  0  0  0
 28 60  1  0  0  0  0
M  END
