DB00316
 OpenBabel07062211533D

 20 20  0  0  0  0  0  0  0  0999 V2000
    4.1946   -0.1069   -0.0011 O   0  0  0  0  0  0  0  0  0  0  0  0
   -2.1003   -1.8083    0.0027 O   0  0  0  0  0  0  0  0  0  0  0  0
   -1.3264    0.4189    0.0001 N   0  0  0  0  0  0  0  0  0  0  0  0
    0.0625    0.2866    0.0004 C   0  0  0  0  0  0  0  0  0  0  0  0
    0.6422   -0.9820    0.0001 C   0  0  0  0  0  0  0  0  0  0  0  0
    0.8714    1.4230    0.0005 C   0  0  0  0  0  0  0  0  0  0  0  0
    2.0308   -1.1142    0.0003 C   0  0  0  0  0  0  0  0  0  0  0  0
    2.2600    1.2906    0.0005 C   0  0  0  0  0  0  0  0  0  0  0  0
    2.8396    0.0221    0.0004 C   0  0  0  0  0  0  0  0  0  0  0  0
   -2.2921   -0.5965   -0.0003 C   0  0  0  0  0  0  0  0  0  0  0  0
   -3.6924   -0.0364   -0.0005 C   0  0  0  0  0  0  0  0  0  0  0  0
    0.0826   -1.9069   -0.0003 H   0  0  0  0  0  0  0  0  0  0  0  0
    0.4334    2.4179    0.0005 H   0  0  0  0  0  0  0  0  0  0  0  0
   -1.6714    1.3765   -0.0002 H   0  0  0  0  0  0  0  0  0  0  0  0
    2.4714   -2.1079   -0.0001 H   0  0  0  0  0  0  0  0  0  0  0  0
    2.8849    2.1796    0.0003 H   0  0  0  0  0  0  0  0  0  0  0  0
   -3.8545    0.5532    0.9061 H   0  0  0  0  0  0  0  0  0  0  0  0
   -4.4186   -0.8535   -0.0281 H   0  0  0  0  0  0  0  0  0  0  0  0
   -3.8386    0.5971   -0.8799 H   0  0  0  0  0  0  0  0  0  0  0  0
    4.4210   -1.0529   -0.0013 H   0  0  0  0  0  0  0  0  0  0  0  0
  1  9  1  0  0  0  0
  1 20  1  0  0  0  0
  2 10  2  0  0  0  0
  3  4  1  0  0  0  0
  3 10  1  0  0  0  0
  3 14  1  0  0  0  0
  4  5  2  0  0  0  0
  4  6  1  0  0  0  0
  5  7  1  0  0  0  0
  5 12  1  0  0  0  0
  6  8  2  0  0  0  0
  6 13  1  0  0  0  0
  7  9  2  0  0  0  0
  7 15  1  0  0  0  0
  8  9  1  0  0  0  0
  8 16  1  0  0  0  0
 10 11  1  0  0  0  0
 11 17  1  0  0  0  0
 11 18  1  0  0  0  0
 11 19  1  0  0  0  0
M  END
