DB00415
 OpenBabel07062211533D

 43 45  0  0  1  0  0  0  0  0999 V2000
    0.7575    0.2497   -1.0096 S   0  0  0  0  0  0  0  0  0  0  0  0
    1.7855   -2.7910    2.0086 O   0  0  0  0  0  0  0  0  0  0  0  0
    4.9906    0.6111    1.1010 O   0  0  0  0  0  0  0  0  0  0  0  0
    4.9508   -1.5122    0.2727 O   0  0  0  0  0  0  0  0  0  0  0  0
   -1.9385   -2.0802   -1.6985 O   0  0  0  0  0  0  0  0  0  0  0  0
    2.3030   -1.5212    0.0877 N   0  0  0  0  0  0  0  0  0  0  0  0
   -0.8276   -2.0097    0.3356 N   0  0  0  0  0  0  0  0  0  0  0  0
   -4.3540   -1.9258   -0.3671 N   0  0  0  0  0  0  0  0  0  0  0  0
    1.3112   -1.4945   -0.9914 C   0  0  1  0  0  0  0  0  0  0  0  0
    2.4363    0.8287   -0.4479 C   0  0  0  0  0  0  0  0  0  0  0  0
    2.8940   -0.2745    0.5304 C   0  0  2  0  0  0  0  0  0  0  0  0
    0.4751   -2.4766   -0.1596 C   0  0  1  0  0  0  0  0  0  0  0  0
    1.6092   -2.3883    0.8812 C   0  0  0  0  0  0  0  0  0  0  0  0
    3.3224    0.9851   -1.6912 C   0  0  0  0  0  0  0  0  0  0  0  0
    2.2862    2.1758    0.2613 C   0  0  0  0  0  0  0  0  0  0  0  0
    4.3720   -0.4889    0.6063 C   0  0  0  0  0  0  0  0  0  0  0  0
   -1.9425   -1.8485   -0.4906 C   0  0  0  0  0  0  0  0  0  0  0  0
   -3.1675   -1.3321    0.2561 C   0  0  1  0  0  0  0  0  0  0  0  0
   -3.2073    0.1820    0.2464 C   0  0  0  0  0  0  0  0  0  0  0  0
   -2.5895    0.8793    1.2692 C   0  0  0  0  0  0  0  0  0  0  0  0
   -3.8607    0.8330   -0.7848 C   0  0  0  0  0  0  0  0  0  0  0  0
   -2.6261    2.2736    1.2604 C   0  0  0  0  0  0  0  0  0  0  0  0
   -3.8973    2.2274   -0.7935 C   0  0  0  0  0  0  0  0  0  0  0  0
   -3.2799    2.9478    0.2291 C   0  0  0  0  0  0  0  0  0  0  0  0
    1.7026   -1.8797   -1.9373 H   0  0  0  0  0  0  0  0  0  0  0  0
    2.5299   -0.0883    1.5499 H   0  0  0  0  0  0  0  0  0  0  0  0
    0.3979   -3.4782   -0.5993 H   0  0  0  0  0  0  0  0  0  0  0  0
    3.4853    0.0320   -2.2068 H   0  0  0  0  0  0  0  0  0  0  0  0
    2.8812    1.6844   -2.4116 H   0  0  0  0  0  0  0  0  0  0  0  0
    4.3077    1.3859   -1.4285 H   0  0  0  0  0  0  0  0  0  0  0  0
    1.8719    2.9384   -0.4087 H   0  0  0  0  0  0  0  0  0  0  0  0
    1.6266    2.1053    1.1342 H   0  0  0  0  0  0  0  0  0  0  0  0
    3.2542    2.5482    0.6132 H   0  0  0  0  0  0  0  0  0  0  0  0
   -0.9332   -1.7866    1.3224 H   0  0  0  0  0  0  0  0  0  0  0  0
   -3.1394   -1.6895    1.2932 H   0  0  0  0  0  0  0  0  0  0  0  0
    5.9624    0.4907    1.1578 H   0  0  0  0  0  0  0  0  0  0  0  0
   -5.1849   -1.6574    0.1600 H   0  0  0  0  0  0  0  0  0  0  0  0
   -4.3002   -2.9420   -0.3006 H   0  0  0  0  0  0  0  0  0  0  0  0
   -2.0771    0.3642    2.0764 H   0  0  0  0  0  0  0  0  0  0  0  0
   -4.3343    0.3019   -1.6046 H   0  0  0  0  0  0  0  0  0  0  0  0
   -2.1443    2.8345    2.0560 H   0  0  0  0  0  0  0  0  0  0  0  0
   -4.4024    2.7527   -1.5988 H   0  0  0  0  0  0  0  0  0  0  0  0
   -3.3069    4.0334    0.2214 H   0  0  0  0  0  0  0  0  0  0  0  0
  1  9  1  0  0  0  0
  1 10  1  0  0  0  0
  2 13  2  0  0  0  0
  3 16  1  0  0  0  0
  3 36  1  0  0  0  0
  4 16  2  0  0  0  0
  5 17  2  0  0  0  0
  6  9  1  0  0  0  0
  6 11  1  0  0  0  0
  6 13  1  0  0  0  0
  7 12  1  0  0  0  0
  7 17  1  0  0  0  0
  7 34  1  0  0  0  0
  8 18  1  0  0  0  0
  8 37  1  0  0  0  0
  8 38  1  0  0  0  0
  9 12  1  1  0  0  0
  9 25  1  0  0  0  0
 10 11  1  0  0  0  0
 10 14  1  0  0  0  0
 10 15  1  0  0  0  0
 11 16  1  0  0  0  0
 11 26  1  1  0  0  0
 12 13  1  0  0  0  0
 12 27  1  6  0  0  0
 14 28  1  0  0  0  0
 14 29  1  0  0  0  0
 14 30  1  0  0  0  0
 15 31  1  0  0  0  0
 15 32  1  0  0  0  0
 15 33  1  0  0  0  0
 17 18  1  0  0  0  0
 18 19  1  0  0  0  0
 18 35  1  1  0  0  0
 19 20  2  0  0  0  0
 19 21  1  0  0  0  0
 20 22  1  0  0  0  0
 20 39  1  0  0  0  0
 21 23  2  0  0  0  0
 21 40  1  0  0  0  0
 22 24  2  0  0  0  0
 22 41  1  0  0  0  0
 23 24  1  0  0  0  0
 23 42  1  0  0  0  0
 24 43  1  0  0  0  0
M  END
