DB00904
 OpenBabel07062211533D

 41 44  0  0  1  0  0  0  0  0999 V2000
   -0.7899   -1.4751    1.3084 O   0  0  0  0  0  0  0  0  0  0  0  0
    2.6454    1.1170   -0.2451 N   0  0  0  0  0  0  0  0  0  0  0  0
   -2.9161   -0.6172   -0.6424 N   0  0  0  0  0  0  0  0  0  0  0  0
   -4.5756   -2.0643   -0.4481 N   0  0  0  0  0  0  0  0  0  0  0  0
   -1.4357    0.7825    0.7568 C   0  0  2  0  0  0  0  0  0  0  0  0
   -0.7601    2.1649    0.8987 C   0  0  0  0  0  0  0  0  0  0  0  0
    0.4536    2.3526   -0.0252 C   0  0  0  0  0  0  0  0  0  0  0  0
    1.3194    1.1509    0.0773 C   0  0  1  0  0  0  0  0  0  0  0  0
    0.9397   -0.1038    0.5025 C   0  0  0  0  0  0  0  0  0  0  0  0
   -0.4308   -0.3697    0.9100 C   0  0  0  0  0  0  0  0  0  0  0  0
   -2.1747    0.6326   -0.5704 C   0  0  0  0  0  0  0  0  0  0  0  0
    2.0910   -0.9406    0.4444 C   0  0  0  0  0  0  0  0  0  0  0  0
    3.1446   -0.1493   -0.0284 C   0  0  0  0  0  0  0  0  0  0  0  0
    3.4190    2.2382   -0.7372 C   0  0  0  0  0  0  0  0  0  0  0  0
    2.3492   -2.2945    0.7438 C   0  0  0  0  0  0  0  0  0  0  0  0
    4.4392   -0.6477   -0.2146 C   0  0  0  0  0  0  0  0  0  0  0  0
   -4.2032   -0.8193   -0.2504 C   0  0  2  0  0  0  0  0  0  0  0  0
   -2.4277   -1.7935   -1.1193 C   0  0  0  0  0  0  0  0  0  0  0  0
    3.6399   -2.8047    0.5618 C   0  0  0  0  0  0  0  0  0  0  0  0
    4.6674   -1.9920    0.0898 C   0  0  0  0  0  0  0  0  0  0  0  0
   -3.4732   -2.6772   -0.9891 C   0  0  0  0  0  0  0  0  0  0  0  0
   -5.0393    0.2567    0.3205 C   0  0  0  0  0  0  0  0  0  0  0  0
   -2.1472    0.6851    1.5876 H   0  0  0  0  0  0  0  0  0  0  0  0
   -0.4230    2.2745    1.9391 H   0  0  0  0  0  0  0  0  0  0  0  0
   -1.4874    2.9656    0.7203 H   0  0  0  0  0  0  0  0  0  0  0  0
    0.9879    3.2608    0.2743 H   0  0  0  0  0  0  0  0  0  0  0  0
    0.1237    2.4837   -1.0618 H   0  0  0  0  0  0  0  0  0  0  0  0
   -1.4822    0.6338   -1.4211 H   0  0  0  0  0  0  0  0  0  0  0  0
   -2.8786    1.4561   -0.7304 H   0  0  0  0  0  0  0  0  0  0  0  0
    3.8764    2.7363    0.1211 H   0  0  0  0  0  0  0  0  0  0  0  0
    4.1857    1.8794   -1.4279 H   0  0  0  0  0  0  0  0  0  0  0  0
    2.7664    2.9278   -1.2777 H   0  0  0  0  0  0  0  0  0  0  0  0
    1.5610   -2.9448    1.1121 H   0  0  0  0  0  0  0  0  0  0  0  0
    5.2490   -0.0237   -0.5775 H   0  0  0  0  0  0  0  0  0  0  0  0
   -1.4239   -1.9064   -1.5050 H   0  0  0  0  0  0  0  0  0  0  0  0
    3.8406   -3.8477    0.7921 H   0  0  0  0  0  0  0  0  0  0  0  0
    5.6627   -2.4083   -0.0433 H   0  0  0  0  0  0  0  0  0  0  0  0
   -3.4888   -3.7228   -1.2598 H   0  0  0  0  0  0  0  0  0  0  0  0
   -6.0105   -0.1414    0.6321 H   0  0  0  0  0  0  0  0  0  0  0  0
   -4.5687    0.7036    1.2010 H   0  0  0  0  0  0  0  0  0  0  0  0
   -5.2255    1.0417   -0.4188 H   0  0  0  0  0  0  0  0  0  0  0  0
  1 10  2  0  0  0  0
  2  8  1  0  0  0  0
  2 13  2  0  0  0  0
  2 14  1  0  0  0  0
  3 11  1  0  0  0  0
  3 17  1  0  0  0  0
  3 18  2  0  0  0  0
  4 17  1  0  0  0  0
  4 21  2  0  0  0  0
  5  6  1  0  0  0  0
  5 10  1  0  0  0  0
  5 11  1  0  0  0  0
  5 23  1  1  0  0  0
  6  7  1  0  0  0  0
  6 24  1  0  0  0  0
  6 25  1  0  0  0  0
  7  8  1  0  0  0  0
  7 26  1  0  0  0  0
  7 27  1  0  0  0  0
  8  9  1  6  0  0  0
  9 10  1  0  0  0  0
  9 12  2  0  0  0  0
 11 28  1  0  0  0  0
 11 29  1  0  0  0  0
 12 13  1  0  0  0  0
 12 15  1  0  0  0  0
 13 16  1  0  0  0  0
 14 30  1  0  0  0  0
 14 31  1  0  0  0  0
 14 32  1  0  0  0  0
 15 19  2  0  0  0  0
 15 33  1  0  0  0  0
 16 20  2  0  0  0  0
 16 34  1  0  0  0  0
 17 22  1  6  0  0  0
 18 21  1  0  0  0  0
 18 35  1  0  0  0  0
 19 20  1  0  0  0  0
 19 36  1  0  0  0  0
 20 37  1  0  0  0  0
 21 38  1  0  0  0  0
 22 39  1  0  0  0  0
 22 40  1  0  0  0  0
 22 41  1  0  0  0  0
M  END
