DB00911
 OpenBabel07062211533D

 29 29  0  0  1  0  0  0  0  0999 V2000
   -2.0561    0.0281   -0.6456 S   0  0  0  0  0  0  0  0  0  0  0  0
   -2.2261    1.2421   -1.4262 O   0  0  0  0  0  0  0  0  0  0  0  0
   -2.1993   -1.2770   -1.2683 O   0  0  0  0  0  0  0  0  0  0  0  0
    3.0619    3.4343    0.1620 O   0  0  0  0  0  0  0  0  0  0  0  0
    1.1899    2.6770   -0.7096 O   0  0  0  0  0  0  0  0  0  0  0  0
    1.9907    0.0548   -0.2113 N   0  0  0  0  0  0  0  0  0  0  0  0
    3.8431   -0.7118    0.7146 N   0  0  0  0  0  0  0  0  0  0  0  0
    2.3095    2.4705   -0.1597 N   0  0  0  0  0  0  0  0  0  0  0  0
   -0.4783    0.0943    0.1423 C   0  0  0  0  0  0  0  0  0  0  0  0
    0.6772    0.0447   -0.8472 C   0  0  0  0  0  0  0  0  0  0  0  0
   -3.1985    0.1011    0.7152 C   0  0  0  0  0  0  0  0  0  0  0  0
    2.6921   -1.0441    0.1733 C   0  0  2  0  0  0  0  0  0  0  0  0
    2.7217    1.1582    0.0955 C   0  0  0  0  0  0  0  0  0  0  0  0
   -4.6329    0.0561    0.2382 C   0  0  0  0  0  0  0  0  0  0  0  0
    3.8674    0.6597    0.6697 C   0  0  0  0  0  0  0  0  0  0  0  0
    2.1862   -2.4191   -0.0154 C   0  0  0  0  0  0  0  0  0  0  0  0
   -0.4293   -0.7488    0.8392 H   0  0  0  0  0  0  0  0  0  0  0  0
   -0.4481    1.0175    0.7298 H   0  0  0  0  0  0  0  0  0  0  0  0
    0.6113   -0.8964   -1.4083 H   0  0  0  0  0  0  0  0  0  0  0  0
    0.6221    0.7928   -1.6401 H   0  0  0  0  0  0  0  0  0  0  0  0
   -2.9864   -0.7487    1.3706 H   0  0  0  0  0  0  0  0  0  0  0  0
   -3.0052    1.0304    1.2592 H   0  0  0  0  0  0  0  0  0  0  0  0
   -5.3187    0.1021    1.0897 H   0  0  0  0  0  0  0  0  0  0  0  0
   -4.8567    0.8981   -0.4246 H   0  0  0  0  0  0  0  0  0  0  0  0
   -4.8380   -0.8667   -0.3142 H   0  0  0  0  0  0  0  0  0  0  0  0
    4.7126    1.2127    1.0544 H   0  0  0  0  0  0  0  0  0  0  0  0
    1.2018   -2.5514    0.4430 H   0  0  0  0  0  0  0  0  0  0  0  0
    2.1209   -2.6705   -1.0784 H   0  0  0  0  0  0  0  0  0  0  0  0
    2.8650   -3.1399    0.4523 H   0  0  0  0  0  0  0  0  0  0  0  0
  1  2  2  0  0  0  0
  1  3  2  0  0  0  0
  1  9  1  0  0  0  0
  1 11  1  0  0  0  0
  4  8  1  0  0  0  0
  5  8  2  0  0  0  0
  6 10  1  0  0  0  0
  6 12  1  0  0  0  0
  6 13  2  0  0  0  0
  7 12  1  0  0  0  0
  7 15  2  0  0  0  0
  8 13  1  0  0  0  0
  9 10  1  0  0  0  0
  9 17  1  0  0  0  0
  9 18  1  0  0  0  0
 10 19  1  0  0  0  0
 10 20  1  0  0  0  0
 11 14  1  0  0  0  0
 11 21  1  0  0  0  0
 11 22  1  0  0  0  0
 12 16  1  6  0  0  0
 13 15  1  0  0  0  0
 14 23  1  0  0  0  0
 14 24  1  0  0  0  0
 14 25  1  0  0  0  0
 15 26  1  0  0  0  0
 16 27  1  0  0  0  0
 16 28  1  0  0  0  0
 16 29  1  0  0  0  0
M  END
