DB00121
 OpenBabel07062211533D

 32 33  0  0  1  0  0  0  0  0999 V2000
    2.5900    1.6113   -1.2308 S   0  0  0  0  0  0  0  0  0  0  0  0
    2.9334   -3.1424   -1.0236 O   0  0  0  0  0  0  0  0  0  0  0  0
   -5.9242   -0.6800    0.7581 O   0  0  0  0  0  0  0  0  0  0  0  0
   -5.1998   -0.1305   -1.3228 O   0  0  0  0  0  0  0  0  0  0  0  0
    1.6378   -1.3861   -0.1716 N   0  0  0  0  0  0  0  0  0  0  0  0
    3.8746   -1.2925    0.0629 N   0  0  0  0  0  0  0  0  0  0  0  0
    1.8639   -0.1658    0.5795 C   0  0  1  0  0  0  0  0  0  0  0  0
    3.4028   -0.0633    0.6696 C   0  0  2  0  0  0  0  0  0  0  0  0
    1.2941    1.0964   -0.0737 C   0  0  2  0  0  0  0  0  0  0  0  0
    3.9126    1.1628   -0.0844 C   0  0  0  0  0  0  0  0  0  0  0  0
   -0.0520    0.9330   -0.7596 C   0  0  0  0  0  0  0  0  0  0  0  0
   -1.1652    0.4626    0.1799 C   0  0  0  0  0  0  0  0  0  0  0  0
    2.8282   -2.0673   -0.4491 C   0  0  0  0  0  0  0  0  0  0  0  0
   -2.5545    0.3328   -0.4509 C   0  0  0  0  0  0  0  0  0  0  0  0
   -3.6374   -0.0822    0.5443 C   0  0  0  0  0  0  0  0  0  0  0  0
   -4.9737   -0.2905   -0.1316 C   0  0  0  0  0  0  0  0  0  0  0  0
    1.4221   -0.3225    1.5703 H   0  0  0  0  0  0  0  0  0  0  0  0
    3.7576   -0.0564    1.7057 H   0  0  0  0  0  0  0  0  0  0  0  0
    1.2203    1.8858    0.6843 H   0  0  0  0  0  0  0  0  0  0  0  0
    4.0535    2.0008    0.6058 H   0  0  0  0  0  0  0  0  0  0  0  0
    4.8528    0.9871   -0.6152 H   0  0  0  0  0  0  0  0  0  0  0  0
   -0.3545    1.8961   -1.1920 H   0  0  0  0  0  0  0  0  0  0  0  0
    0.0176    0.2320   -1.6014 H   0  0  0  0  0  0  0  0  0  0  0  0
    0.7217   -1.7601   -0.3977 H   0  0  0  0  0  0  0  0  0  0  0  0
    4.8506   -1.5686    0.0218 H   0  0  0  0  0  0  0  0  0  0  0  0
   -0.9010   -0.5064    0.6175 H   0  0  0  0  0  0  0  0  0  0  0  0
   -1.2309    1.1681    1.0184 H   0  0  0  0  0  0  0  0  0  0  0  0
   -2.8331    1.2893   -0.9110 H   0  0  0  0  0  0  0  0  0  0  0  0
   -2.5048   -0.3990   -1.2672 H   0  0  0  0  0  0  0  0  0  0  0  0
   -3.7546    0.6926    1.3096 H   0  0  0  0  0  0  0  0  0  0  0  0
   -3.3528   -1.0230    1.0281 H   0  0  0  0  0  0  0  0  0  0  0  0
   -6.7950   -0.8143    0.3268 H   0  0  0  0  0  0  0  0  0  0  0  0
  1  9  1  0  0  0  0
  1 10  1  0  0  0  0
  2 13  2  0  0  0  0
  3 16  1  0  0  0  0
  3 32  1  0  0  0  0
  4 16  2  0  0  0  0
  5  7  1  0  0  0  0
  5 13  1  0  0  0  0
  5 24  1  0  0  0  0
  6  8  1  0  0  0  0
  6 13  1  0  0  0  0
  6 25  1  0  0  0  0
  7  8  1  1  0  0  0
  7 17  1  0  0  0  0
  8 10  1  0  0  0  0
  8 18  1  1  0  0  0
  9  7  1  1  0  0  0
  9 11  1  0  0  0  0
  9 19  1  0  0  0  0
 10 20  1  0  0  0  0
 10 21  1  0  0  0  0
 11 12  1  0  0  0  0
 11 22  1  0  0  0  0
 11 23  1  0  0  0  0
 12 14  1  0  0  0  0
 12 26  1  0  0  0  0
 12 27  1  0  0  0  0
 14 15  1  0  0  0  0
 14 28  1  0  0  0  0
 14 29  1  0  0  0  0
 15 16  1  0  0  0  0
 15 30  1  0  0  0  0
 15 31  1  0  0  0  0
M  END
