DB00596
 OpenBabel07062211533D

 56 59  0  0  1  0  0  0  0  0999 V2000
    5.0548   -3.3499   -0.2917 Cl  0  0  0  0  0  0  0  0  0  0  0  0
   -1.5193   -0.3602    1.5509 F   0  0  0  0  0  0  0  0  0  0  0  0
   -3.4427    3.2688    0.1500 F   0  0  0  0  0  0  0  0  0  0  0  0
    2.8481   -0.4479    2.0195 O   0  0  0  0  0  0  0  0  0  0  0  0
   -0.6057   -2.0945   -1.4721 O   0  0  0  0  0  0  0  0  0  0  0  0
    4.8541   -0.4173   -0.7088 O   0  0  0  0  0  0  0  0  0  0  0  0
   -6.3702   -0.1891    2.0247 O   0  0  0  0  0  0  0  0  0  0  0  0
    1.5904   -0.3847   -0.0846 C   0  0  1  0  0  0  0  0  0  0  0  0
    0.7481    0.8359    0.3472 C   0  0  2  0  0  0  0  0  0  0  0  0
   -0.6573    0.8568   -0.2731 C   0  0  1  0  0  0  0  0  0  0  0  0
   -1.4324   -0.4317    0.1691 C   0  0  1  0  0  0  0  0  0  0  0  0
    2.9326   -0.0595    0.6420 C   0  0  1  0  0  0  0  0  0  0  0  0
    1.6858    2.0101    0.0848 C   0  0  0  0  0  0  0  0  0  0  0  0
    0.8479   -1.6486    0.3993 C   0  0  0  0  0  0  0  0  0  0  0  0
    3.0598    1.4963    0.5862 C   0  0  2  0  0  0  0  0  0  0  0  0
   -0.6129   -1.7294   -0.1014 C   0  0  2  0  0  0  0  0  0  0  0  0
   -2.9253   -0.4331   -0.3492 C   0  0  1  0  0  0  0  0  0  0  0  0
   -1.4110    2.1283    0.1508 C   0  0  0  0  0  0  0  0  0  0  0  0
    1.8286   -0.4534   -1.6185 C   0  0  0  0  0  0  0  0  0  0  0  0
   -2.8513    2.1409   -0.3417 C   0  0  1  0  0  0  0  0  0  0  0  0
   -3.5692    0.8882    0.0951 C   0  0  0  0  0  0  0  0  0  0  0  0
    4.1108   -0.8582    0.1665 C   0  0  0  0  0  0  0  0  0  0  0  0
    4.1921    2.0619   -0.2655 C   0  0  0  0  0  0  0  0  0  0  0  0
   -3.0623   -0.5270   -1.8868 C   0  0  0  0  0  0  0  0  0  0  0  0
   -3.6754   -1.6299    0.2180 C   0  0  0  0  0  0  0  0  0  0  0  0
   -4.6722    0.9565    0.8571 C   0  0  0  0  0  0  0  0  0  0  0  0
    4.3014   -2.2041    0.8274 C   0  0  0  0  0  0  0  0  0  0  0  0
   -4.7723   -1.5655    0.9787 C   0  0  0  0  0  0  0  0  0  0  0  0
   -5.3551   -0.2613    1.3404 C   0  0  0  0  0  0  0  0  0  0  0  0
    0.5977    0.8006    1.4375 H   0  0  0  0  0  0  0  0  0  0  0  0
   -0.5737    0.8777   -1.3643 H   0  0  0  0  0  0  0  0  0  0  0  0
    1.7064    2.2737   -0.9786 H   0  0  0  0  0  0  0  0  0  0  0  0
    1.3838    2.9055    0.6386 H   0  0  0  0  0  0  0  0  0  0  0  0
    0.8190   -1.6753    1.4953 H   0  0  0  0  0  0  0  0  0  0  0  0
    1.3902   -2.5427    0.0711 H   0  0  0  0  0  0  0  0  0  0  0  0
    3.2060    1.8844    1.6036 H   0  0  0  0  0  0  0  0  0  0  0  0
   -1.0789   -2.5578    0.4447 H   0  0  0  0  0  0  0  0  0  0  0  0
   -0.9042    3.0203   -0.2369 H   0  0  0  0  0  0  0  0  0  0  0  0
   -1.4008    2.2330    1.2441 H   0  0  0  0  0  0  0  0  0  0  0  0
    2.3215   -1.3946   -1.8888 H   0  0  0  0  0  0  0  0  0  0  0  0
    0.9088   -0.3960   -2.2027 H   0  0  0  0  0  0  0  0  0  0  0  0
    2.4661    0.3558   -1.9839 H   0  0  0  0  0  0  0  0  0  0  0  0
   -2.8807    2.2298   -1.4324 H   0  0  0  0  0  0  0  0  0  0  0  0
    4.1479    3.1578   -0.2457 H   0  0  0  0  0  0  0  0  0  0  0  0
    5.1733    1.7913    0.1365 H   0  0  0  0  0  0  0  0  0  0  0  0
    4.1230    1.7727   -1.3178 H   0  0  0  0  0  0  0  0  0  0  0  0
   -2.8431   -1.5324   -2.2619 H   0  0  0  0  0  0  0  0  0  0  0  0
   -4.0875   -0.2988   -2.2075 H   0  0  0  0  0  0  0  0  0  0  0  0
   -2.4000    0.1665   -2.4134 H   0  0  0  0  0  0  0  0  0  0  0  0
    2.3075    0.1962    2.5051 H   0  0  0  0  0  0  0  0  0  0  0  0
   -3.3066   -2.6209   -0.0372 H   0  0  0  0  0  0  0  0  0  0  0  0
   -0.1402   -2.9442   -1.5528 H   0  0  0  0  0  0  0  0  0  0  0  0
   -5.1005    1.9047    1.1637 H   0  0  0  0  0  0  0  0  0  0  0  0
    3.3571   -2.6534    1.1332 H   0  0  0  0  0  0  0  0  0  0  0  0
    4.9519   -2.0896    1.6987 H   0  0  0  0  0  0  0  0  0  0  0  0
   -5.2636   -2.4625    1.3373 H   0  0  0  0  0  0  0  0  0  0  0  0
  1 27  1  0  0  0  0
  2 11  1  0  0  0  0
  3 20  1  0  0  0  0
  4 12  1  0  0  0  0
  4 50  1  0  0  0  0
  5 16  1  0  0  0  0
  5 52  1  0  0  0  0
  6 22  2  0  0  0  0
  7 29  2  0  0  0  0
  8  9  1  1  0  0  0
  8 14  1  0  0  0  0
  8 19  1  0  0  0  0
  9 10  1  6  0  0  0
  9 13  1  0  0  0  0
  9 30  1  0  0  0  0
 10 11  1  1  0  0  0
 10 18  1  0  0  0  0
 10 31  1  0  0  0  0
 11 16  1  6  0  0  0
 12  8  1  6  0  0  0
 12 22  1  0  0  0  0
 13 15  1  0  0  0  0
 13 32  1  0  0  0  0
 13 33  1  0  0  0  0
 14 16  1  0  0  0  0
 14 34  1  0  0  0  0
 14 35  1  0  0  0  0
 15 12  1  6  0  0  0
 15 23  1  0  0  0  0
 15 36  1  0  0  0  0
 16 37  1  1  0  0  0
 17 11  1  1  0  0  0
 17 21  1  0  0  0  0
 17 24  1  0  0  0  0
 17 25  1  0  0  0  0
 18 20  1  0  0  0  0
 18 38  1  0  0  0  0
 18 39  1  0  0  0  0
 19 40  1  0  0  0  0
 19 41  1  0  0  0  0
 19 42  1  0  0  0  0
 20 21  1  0  0  0  0
 20 43  1  6  0  0  0
 21 26  2  0  0  0  0
 22 27  1  0  0  0  0
 23 44  1  0  0  0  0
 23 45  1  0  0  0  0
 23 46  1  0  0  0  0
 24 47  1  0  0  0  0
 24 48  1  0  0  0  0
 24 49  1  0  0  0  0
 25 28  2  0  0  0  0
 25 51  1  0  0  0  0
 26 29  1  0  0  0  0
 26 53  1  0  0  0  0
 27 54  1  0  0  0  0
 27 55  1  0  0  0  0
 28 29  1  0  0  0  0
 28 56  1  0  0  0  0
M  END
