DB00275
 OpenBabel07062211533D

 59 62  0  0  1  0  0  0  0  0999 V2000
    4.3717   -2.5917    1.2623 O   0  0  0  0  0  0  0  0  0  0  0  0
    1.9840   -2.5519    2.2252 O   0  0  0  0  0  0  0  0  0  0  0  0
    1.6022   -0.7116    3.4870 O   0  0  0  0  0  0  0  0  0  0  0  0
    1.7425    0.7344    0.8211 N   0  0  0  0  0  0  0  0  0  0  0  0
    3.0949    0.1496   -0.8136 N   0  0  0  0  0  0  0  0  0  0  0  0
   -3.4410   -2.5241   -1.0039 N   0  0  0  0  0  0  0  0  0  0  0  0
   -3.4021   -0.9217   -2.6035 N   0  0  0  0  0  0  0  0  0  0  0  0
   -2.5623   -2.7570   -1.9890 N   0  0  0  0  0  0  0  0  0  0  0  0
   -2.5054   -1.8336   -2.9589 N   0  0  0  0  0  0  0  0  0  0  0  0
    3.8826   -2.0408    0.0027 C   0  0  0  0  0  0  0  0  0  0  0  0
    3.0706   -0.8225    0.1552 C   0  0  0  0  0  0  0  0  0  0  0  0
    2.2762    1.0798   -0.3750 C   0  0  1  0  0  0  0  0  0  0  0  0
    2.2301   -0.4746    1.1863 C   0  0  1  0  0  0  0  0  0  0  0  0
    0.7912    1.5378    1.5962 C   0  0  0  0  0  0  0  0  0  0  0  0
    1.9535    2.3465   -1.0634 C   0  0  0  0  0  0  0  0  0  0  0  0
    3.1213   -3.2274   -0.6591 C   0  0  0  0  0  0  0  0  0  0  0  0
    5.1836   -1.7974   -0.8124 C   0  0  0  0  0  0  0  0  0  0  0  0
   -0.6224    1.2218    1.2412 C   0  0  0  0  0  0  0  0  0  0  0  0
    3.2052    3.0518   -1.6228 C   0  0  0  0  0  0  0  0  0  0  0  0
    1.9152   -1.1900    2.3817 C   0  0  0  0  0  0  0  0  0  0  0  0
   -1.3078    0.2210    1.9297 C   0  0  0  0  0  0  0  0  0  0  0  0
   -1.2590    1.9274    0.2199 C   0  0  0  0  0  0  0  0  0  0  0  0
    4.1927    3.4361   -0.5323 C   0  0  0  0  0  0  0  0  0  0  0  0
   -3.2664    0.6307    0.5760 C   0  0  0  0  0  0  0  0  0  0  0  0
   -2.6298   -0.0747    1.5970 C   0  0  0  0  0  0  0  0  0  0  0  0
   -2.5811    1.6317   -0.1126 C   0  0  0  0  0  0  0  0  0  0  0  0
   -4.6379    0.3248    0.2313 C   0  0  0  0  0  0  0  0  0  0  0  0
   -4.9593   -0.6333   -0.7338 C   0  0  0  0  0  0  0  0  0  0  0  0
   -5.6600    1.0138    0.8891 C   0  0  0  0  0  0  0  0  0  0  0  0
   -6.2941   -0.9005   -1.0386 C   0  0  0  0  0  0  0  0  0  0  0  0
   -6.9947    0.7465    0.5839 C   0  0  0  0  0  0  0  0  0  0  0  0
   -3.9378   -1.3668   -1.4360 C   0  0  0  0  0  0  0  0  0  0  0  0
   -7.3117   -0.2105   -0.3798 C   0  0  0  0  0  0  0  0  0  0  0  0
    1.0193    2.5987    1.4582 H   0  0  0  0  0  0  0  0  0  0  0  0
    0.9781    1.3746    2.6611 H   0  0  0  0  0  0  0  0  0  0  0  0
    1.4422    3.0766   -0.4359 H   0  0  0  0  0  0  0  0  0  0  0  0
    1.2793    2.1248   -1.8997 H   0  0  0  0  0  0  0  0  0  0  0  0
    2.2284   -3.5007   -0.0886 H   0  0  0  0  0  0  0  0  0  0  0  0
    2.8009   -2.9685   -1.6742 H   0  0  0  0  0  0  0  0  0  0  0  0
    3.7518   -4.1227   -0.7059 H   0  0  0  0  0  0  0  0  0  0  0  0
    5.8069   -2.6989   -0.8393 H   0  0  0  0  0  0  0  0  0  0  0  0
    4.9644   -1.4961   -1.8425 H   0  0  0  0  0  0  0  0  0  0  0  0
    5.7892   -1.0100   -0.3478 H   0  0  0  0  0  0  0  0  0  0  0  0
    2.8902    3.9561   -2.1568 H   0  0  0  0  0  0  0  0  0  0  0  0
    3.7074    2.4078   -2.3547 H   0  0  0  0  0  0  0  0  0  0  0  0
    4.8936   -1.8973    1.7004 H   0  0  0  0  0  0  0  0  0  0  0  0
   -0.8384   -0.3319    2.7361 H   0  0  0  0  0  0  0  0  0  0  0  0
   -0.7559    2.7233   -0.3181 H   0  0  0  0  0  0  0  0  0  0  0  0
    3.7145    4.0629    0.2273 H   0  0  0  0  0  0  0  0  0  0  0  0
    4.6159    2.5566   -0.0376 H   0  0  0  0  0  0  0  0  0  0  0  0
    5.0236    4.0038   -0.9634 H   0  0  0  0  0  0  0  0  0  0  0  0
   -3.1504   -0.8562    2.1455 H   0  0  0  0  0  0  0  0  0  0  0  0
   -3.0639    2.1935   -0.9088 H   0  0  0  0  0  0  0  0  0  0  0  0
    1.7642   -3.0228    3.0571 H   0  0  0  0  0  0  0  0  0  0  0  0
   -5.4339    1.7637    1.6439 H   0  0  0  0  0  0  0  0  0  0  0  0
   -6.5602   -1.6430   -1.7875 H   0  0  0  0  0  0  0  0  0  0  0  0
   -7.7872    1.2835    1.0969 H   0  0  0  0  0  0  0  0  0  0  0  0
   -8.3509   -0.4183   -0.6171 H   0  0  0  0  0  0  0  0  0  0  0  0
   -1.9738   -3.5831   -1.9995 H   0  0  0  0  0  0  0  0  0  0  0  0
  1 10  1  0  0  0  0
  1 46  1  0  0  0  0
  2 20  1  0  0  0  0
  2 54  1  0  0  0  0
  3 20  2  0  0  0  0
  4 12  1  0  0  0  0
  4 13  1  0  0  0  0
  4 14  1  0  0  0  0
  5 11  2  0  0  0  0
  5 12  1  0  0  0  0
  6  8  1  0  0  0  0
  6 32  2  0  0  0  0
  7  9  2  0  0  0  0
  7 32  1  0  0  0  0
  8  9  1  0  0  0  0
  8 59  1  0  0  0  0
 10 11  1  0  0  0  0
 10 16  1  0  0  0  0
 10 17  1  0  0  0  0
 11 13  1  0  0  0  0
 12 15  1  6  0  0  0
 13 20  1  1  0  0  0
 14 18  1  0  0  0  0
 14 34  1  0  0  0  0
 14 35  1  0  0  0  0
 15 19  1  0  0  0  0
 15 36  1  0  0  0  0
 15 37  1  0  0  0  0
 16 38  1  0  0  0  0
 16 39  1  0  0  0  0
 16 40  1  0  0  0  0
 17 41  1  0  0  0  0
 17 42  1  0  0  0  0
 17 43  1  0  0  0  0
 18 21  2  0  0  0  0
 18 22  1  0  0  0  0
 19 23  1  0  0  0  0
 19 44  1  0  0  0  0
 19 45  1  0  0  0  0
 21 25  1  0  0  0  0
 21 47  1  0  0  0  0
 22 26  2  0  0  0  0
 22 48  1  0  0  0  0
 23 49  1  0  0  0  0
 23 50  1  0  0  0  0
 23 51  1  0  0  0  0
 24 25  2  0  0  0  0
 24 26  1  0  0  0  0
 24 27  1  0  0  0  0
 25 52  1  0  0  0  0
 26 53  1  0  0  0  0
 27 28  2  0  0  0  0
 27 29  1  0  0  0  0
 28 30  1  0  0  0  0
 28 32  1  0  0  0  0
 29 31  2  0  0  0  0
 29 55  1  0  0  0  0
 30 33  2  0  0  0  0
 30 56  1  0  0  0  0
 31 33  1  0  0  0  0
 31 57  1  0  0  0  0
 33 58  1  0  0  0  0
M  END
