DB00790
 OpenBabel07062211533D

 58 59  0  0  1  0  0  0  0  0999 V2000
    0.5719   -1.9324    1.7306 O   0  0  0  0  0  0  0  0  0  0  0  0
    0.4705    3.1011   -0.1636 O   0  0  0  0  0  0  0  0  0  0  0  0
    0.2974    1.1010   -1.2433 O   0  0  0  0  0  0  0  0  0  0  0  0
   -2.9143    1.1522   -0.6632 O   0  0  0  0  0  0  0  0  0  0  0  0
   -3.5679    1.3843    1.5340 O   0  0  0  0  0  0  0  0  0  0  0  0
    1.6615   -0.0907    0.8503 N   0  0  0  0  0  0  0  0  0  0  0  0
   -1.6515   -0.5573    2.1495 N   0  0  0  0  0  0  0  0  0  0  0  0
    3.9525    0.2332    0.4488 C   0  0  2  0  0  0  0  0  0  0  0  0
    2.8493   -0.8304    0.4151 C   0  0  2  0  0  0  0  0  0  0  0  0
    3.2188    1.4975   -0.0070 C   0  0  0  0  0  0  0  0  0  0  0  0
    1.8247    1.3474    0.6119 C   0  0  1  0  0  0  0  0  0  0  0  0
    5.1991   -0.1129   -0.3599 C   0  0  0  0  0  0  0  0  0  0  0  0
    2.6234   -1.4580   -0.9657 C   0  0  0  0  0  0  0  0  0  0  0  0
    4.8982   -0.7168   -1.7278 C   0  0  0  0  0  0  0  0  0  0  0  0
    3.9305   -1.8895   -1.6169 C   0  0  0  0  0  0  0  0  0  0  0  0
    0.6495   -0.7124    1.5684 C   0  0  0  0  0  0  0  0  0  0  0  0
    0.7900    1.8002   -0.3704 C   0  0  0  0  0  0  0  0  0  0  0  0
   -0.4063    0.1913    2.1543 C   0  0  2  0  0  0  0  0  0  0  0  0
   -0.0184    0.5954    3.5623 C   0  0  0  0  0  0  0  0  0  0  0  0
   -2.2619   -0.5523    0.8256 C   0  0  1  0  0  0  0  0  0  0  0  0
   -3.1860   -1.7630    0.6274 C   0  0  0  0  0  0  0  0  0  0  0  0
   -2.9982    0.7643    0.6453 C   0  0  0  0  0  0  0  0  0  0  0  0
   -3.7936   -1.8761   -0.7762 C   0  0  0  0  0  0  0  0  0  0  0  0
   -4.6504   -3.1265   -0.9076 C   0  0  0  0  0  0  0  0  0  0  0  0
   -3.5574    2.3902   -0.9829 C   0  0  0  0  0  0  0  0  0  0  0  0
   -3.3739    2.6746   -2.4584 C   0  0  0  0  0  0  0  0  0  0  0  0
    4.2554    0.3938    1.4936 H   0  0  0  0  0  0  0  0  0  0  0  0
    3.0725   -1.6276    1.1350 H   0  0  0  0  0  0  0  0  0  0  0  0
    3.7173    2.4065    0.3463 H   0  0  0  0  0  0  0  0  0  0  0  0
    3.1732    1.5602   -1.1009 H   0  0  0  0  0  0  0  0  0  0  0  0
    1.7321    1.8785    1.5630 H   0  0  0  0  0  0  0  0  0  0  0  0
    5.8317    0.7745   -0.4779 H   0  0  0  0  0  0  0  0  0  0  0  0
    5.7882   -0.8415    0.2121 H   0  0  0  0  0  0  0  0  0  0  0  0
    1.9506   -2.3194   -0.8742 H   0  0  0  0  0  0  0  0  0  0  0  0
    2.1175   -0.7520   -1.6348 H   0  0  0  0  0  0  0  0  0  0  0  0
    4.4777    0.0483   -2.3910 H   0  0  0  0  0  0  0  0  0  0  0  0
    5.8326   -1.0552   -2.1899 H   0  0  0  0  0  0  0  0  0  0  0  0
    4.3884   -2.6954   -1.0307 H   0  0  0  0  0  0  0  0  0  0  0  0
    3.7277   -2.2938   -2.6150 H   0  0  0  0  0  0  0  0  0  0  0  0
   -0.5342    1.1144    1.5902 H   0  0  0  0  0  0  0  0  0  0  0  0
   -2.3070   -0.1918    2.8394 H   0  0  0  0  0  0  0  0  0  0  0  0
   -0.7720    1.2560    4.0052 H   0  0  0  0  0  0  0  0  0  0  0  0
    0.9402    1.1236    3.5808 H   0  0  0  0  0  0  0  0  0  0  0  0
    0.0880   -0.2786    4.2161 H   0  0  0  0  0  0  0  0  0  0  0  0
   -0.2096    3.4158   -0.7968 H   0  0  0  0  0  0  0  0  0  0  0  0
   -1.4834   -0.6192    0.0545 H   0  0  0  0  0  0  0  0  0  0  0  0
   -4.0033   -1.7212    1.3600 H   0  0  0  0  0  0  0  0  0  0  0  0
   -2.6199   -2.6797    0.8399 H   0  0  0  0  0  0  0  0  0  0  0  0
   -2.9951   -1.9029   -1.5262 H   0  0  0  0  0  0  0  0  0  0  0  0
   -4.4192   -1.0036   -0.9920 H   0  0  0  0  0  0  0  0  0  0  0  0
   -4.0564   -4.0293   -0.7337 H   0  0  0  0  0  0  0  0  0  0  0  0
   -5.0769   -3.1894   -1.9136 H   0  0  0  0  0  0  0  0  0  0  0  0
   -5.4758   -3.1139   -0.1887 H   0  0  0  0  0  0  0  0  0  0  0  0
   -3.1090    3.1968   -0.3922 H   0  0  0  0  0  0  0  0  0  0  0  0
   -4.6255    2.3176   -0.7496 H   0  0  0  0  0  0  0  0  0  0  0  0
   -2.3094    2.7320   -2.7093 H   0  0  0  0  0  0  0  0  0  0  0  0
   -3.7994    1.8662   -3.0621 H   0  0  0  0  0  0  0  0  0  0  0  0
   -3.8545    3.6160   -2.7384 H   0  0  0  0  0  0  0  0  0  0  0  0
  1 16  2  0  0  0  0
  2 17  1  0  0  0  0
  2 45  1  0  0  0  0
  3 17  2  0  0  0  0
  4 22  1  0  0  0  0
  4 25  1  0  0  0  0
  5 22  2  0  0  0  0
  6  9  1  0  0  0  0
  6 11  1  0  0  0  0
  6 16  1  0  0  0  0
  7 18  1  0  0  0  0
  7 20  1  0  0  0  0
  7 41  1  0  0  0  0
  8  9  1  6  0  0  0
  8 10  1  0  0  0  0
  8 12  1  0  0  0  0
  8 27  1  0  0  0  0
  9 13  1  0  0  0  0
  9 28  1  1  0  0  0
 10 11  1  0  0  0  0
 10 29  1  0  0  0  0
 10 30  1  0  0  0  0
 11 17  1  0  0  0  0
 11 31  1  1  0  0  0
 12 14  1  0  0  0  0
 12 32  1  0  0  0  0
 12 33  1  0  0  0  0
 13 15  1  0  0  0  0
 13 34  1  0  0  0  0
 13 35  1  0  0  0  0
 14 15  1  0  0  0  0
 14 36  1  0  0  0  0
 14 37  1  0  0  0  0
 15 38  1  0  0  0  0
 15 39  1  0  0  0  0
 16 18  1  0  0  0  0
 18 19  1  0  0  0  0
 18 40  1  6  0  0  0
 19 42  1  0  0  0  0
 19 43  1  0  0  0  0
 19 44  1  0  0  0  0
 20 21  1  0  0  0  0
 20 22  1  0  0  0  0
 20 46  1  6  0  0  0
 21 23  1  0  0  0  0
 21 47  1  0  0  0  0
 21 48  1  0  0  0  0
 23 24  1  0  0  0  0
 23 49  1  0  0  0  0
 23 50  1  0  0  0  0
 24 51  1  0  0  0  0
 24 52  1  0  0  0  0
 24 53  1  0  0  0  0
 25 26  1  0  0  0  0
 25 54  1  0  0  0  0
 25 55  1  0  0  0  0
 26 56  1  0  0  0  0
 26 57  1  0  0  0  0
 26 58  1  0  0  0  0
M  END
