DB00487
 OpenBabel07062211533D

 44 46  0  0  1  0  0  0  0  0999 V2000
   -0.8566    3.0867   -0.6772 F   0  0  0  0  0  0  0  0  0  0  0  0
    4.1691    3.0665   -0.5261 O   0  0  0  0  0  0  0  0  0  0  0  0
    6.6566    2.3090   -0.2680 O   0  0  0  0  0  0  0  0  0  0  0  0
    7.0403    0.1223    0.2838 O   0  0  0  0  0  0  0  0  0  0  0  0
   -4.3778   -0.2548    0.2291 N   0  3  2  0  0  0  0  0  0  0  0  0
   -1.6554    0.5040   -0.0635 N   0  0  0  0  0  0  0  0  0  0  0  0
    3.0622   -0.7527    0.3837 N   0  0  0  0  0  0  0  0  0  0  0  0
   -3.9644    1.1774    0.4541 C   0  0  0  0  0  0  0  0  0  0  0  0
   -3.5223   -0.9022   -0.8295 C   0  0  0  0  0  0  0  0  0  0  0  0
   -2.5081    1.2158    0.8974 C   0  0  0  0  0  0  0  0  0  0  0  0
   -2.0633   -0.8655   -0.3931 C   0  0  0  0  0  0  0  0  0  0  0  0
   -5.8427   -0.3724   -0.0848 C   0  0  0  0  0  0  0  0  0  0  0  0
   -0.3004    0.8517   -0.1099 C   0  0  0  0  0  0  0  0  0  0  0  0
    0.6731   -0.1165    0.1576 C   0  0  0  0  0  0  0  0  0  0  0  0
    2.0442    0.1943    0.1204 C   0  0  0  0  0  0  0  0  0  0  0  0
    0.0724    2.1548   -0.4212 C   0  0  0  0  0  0  0  0  0  0  0  0
    2.3957    1.5269   -0.1989 C   0  0  0  0  0  0  0  0  0  0  0  0
    1.4202    2.4970   -0.4668 C   0  0  0  0  0  0  0  0  0  0  0  0
    3.8285    1.9219   -0.2547 C   0  0  0  0  0  0  0  0  0  0  0  0
    2.6810   -2.1241    0.7122 C   0  0  0  0  0  0  0  0  0  0  0  0
    4.3864   -0.3585    0.3250 C   0  0  0  0  0  0  0  0  0  0  0  0
    4.8287    0.8680    0.0348 C   0  0  2  0  0  0  0  0  0  0  0  0
    2.5750   -2.9834   -0.5306 C   0  0  0  0  0  0  0  0  0  0  0  0
    6.3179    1.1243    0.0149 C   0  0  0  0  0  0  0  0  0  0  0  0
   -4.2243   -0.7658    1.1095 H   0  0  0  0  0  0  0  0  0  0  0  0
   -4.6160    1.5930    1.2296 H   0  0  0  0  0  0  0  0  0  0  0  0
   -4.1189    1.7188   -0.4862 H   0  0  0  0  0  0  0  0  0  0  0  0
   -3.6812   -0.3522   -1.7643 H   0  0  0  0  0  0  0  0  0  0  0  0
   -3.8648   -1.9354   -0.9488 H   0  0  0  0  0  0  0  0  0  0  0  0
   -2.2173    2.2649    1.0167 H   0  0  0  0  0  0  0  0  0  0  0  0
   -2.4029    0.7461    1.8840 H   0  0  0  0  0  0  0  0  0  0  0  0
   -1.9233   -1.5178    0.4784 H   0  0  0  0  0  0  0  0  0  0  0  0
   -1.4596   -1.2658   -1.2171 H   0  0  0  0  0  0  0  0  0  0  0  0
   -6.0450    0.1608   -1.0175 H   0  0  0  0  0  0  0  0  0  0  0  0
   -6.0844   -1.4343   -0.1795 H   0  0  0  0  0  0  0  0  0  0  0  0
   -6.4030    0.0640    0.7463 H   0  0  0  0  0  0  0  0  0  0  0  0
    0.3489   -1.1223    0.3989 H   0  0  0  0  0  0  0  0  0  0  0  0
    1.6923    3.5200   -0.7114 H   0  0  0  0  0  0  0  0  0  0  0  0
    3.4581   -2.5658    1.3519 H   0  0  0  0  0  0  0  0  0  0  0  0
    1.7792   -2.1899    1.3294 H   0  0  0  0  0  0  0  0  0  0  0  0
    5.0582   -1.1815    0.5440 H   0  0  0  0  0  0  0  0  0  0  0  0
    1.7936   -2.6189   -1.2051 H   0  0  0  0  0  0  0  0  0  0  0  0
    3.5176   -2.9929   -1.0880 H   0  0  0  0  0  0  0  0  0  0  0  0
    2.3326   -4.0157   -0.2595 H   0  0  0  0  0  0  0  0  0  0  0  0
  1 16  1  0  0  0  0
  2 19  2  0  0  0  0
  3 24  2  0  0  0  0
  4 24  1  0  0  0  0
  5  8  1  0  0  0  0
  5  9  1  0  0  0  0
  5 12  1  0  0  0  0
  5 25  1  1  0  0  0
  6 10  1  0  0  0  0
  6 11  1  0  0  0  0
  6 13  1  0  0  0  0
  7 15  1  0  0  0  0
  7 20  1  0  0  0  0
  7 21  2  0  0  0  0
  8 10  1  0  0  0  0
  8 26  1  0  0  0  0
  8 27  1  0  0  0  0
  9 11  1  0  0  0  0
  9 28  1  0  0  0  0
  9 29  1  0  0  0  0
 10 30  1  0  0  0  0
 10 31  1  0  0  0  0
 11 32  1  0  0  0  0
 11 33  1  0  0  0  0
 12 34  1  0  0  0  0
 12 35  1  0  0  0  0
 12 36  1  0  0  0  0
 13 14  2  0  0  0  0
 13 16  1  0  0  0  0
 14 15  1  0  0  0  0
 14 37  1  0  0  0  0
 15 17  2  0  0  0  0
 16 18  2  0  0  0  0
 17 18  1  0  0  0  0
 17 19  1  0  0  0  0
 18 38  1  0  0  0  0
 19 22  1  0  0  0  0
 20 23  1  0  0  0  0
 20 39  1  0  0  0  0
 20 40  1  0  0  0  0
 21 22  1  0  0  0  0
 21 41  1  0  0  0  0
 22 24  1  1  0  0  0
 23 42  1  0  0  0  0
 23 43  1  0  0  0  0
 23 44  1  0  0  0  0
M  CHG  1   5   1
M  END
