DB00365
 OpenBabel07062211533D

 48 51  0  0  1  0  0  0  0  0999 V2000
   -1.4441    2.6535    0.7730 F   0  0  0  0  0  0  0  0  0  0  0  0
    3.6113    2.8415    0.3195 O   0  0  0  0  0  0  0  0  0  0  0  0
    5.9167    2.2247   -0.6893 O   0  0  0  0  0  0  0  0  0  0  0  0
    6.6130    0.1487   -0.0289 O   0  0  0  0  0  0  0  0  0  0  0  0
    2.5842   -1.0366   -0.4013 N   0  0  0  0  0  0  0  0  0  0  0  0
   -2.1491    0.0290    0.2849 N   0  0  0  0  0  0  0  0  0  0  0  0
   -4.8468   -0.8867    0.1490 N   0  0  0  0  0  0  0  0  0  0  0  0
    2.3079   -2.4637   -0.6747 C   0  0  0  0  0  0  0  0  0  0  0  0
    2.9977   -3.5377    0.0992 C   0  0  0  0  0  0  0  0  0  0  0  0
    1.5301   -3.2916    0.2938 C   0  0  0  0  0  0  0  0  0  0  0  0
    1.5386   -0.1164   -0.1050 C   0  0  0  0  0  0  0  0  0  0  0  0
    3.8925   -0.5946   -0.4354 C   0  0  0  0  0  0  0  0  0  0  0  0
    1.8538    1.2358    0.1502 C   0  0  0  0  0  0  0  0  0  0  0  0
   -0.8110    0.4361    0.2410 C   0  0  0  0  0  0  0  0  0  0  0  0
   -3.0974    0.6717   -0.6364 C   0  0  0  0  0  0  0  0  0  0  0  0
    0.1876   -0.4965   -0.0537 C   0  0  0  0  0  0  0  0  0  0  0  0
   -4.5349    0.5222   -0.1162 C   0  0  1  0  0  0  0  0  0  0  0  0
   -2.4781   -1.3443    0.6798 C   0  0  0  0  0  0  0  0  0  0  0  0
   -3.9298   -1.4316    1.1480 C   0  0  0  0  0  0  0  0  0  0  0  0
    0.8525    2.1693    0.4454 C   0  0  0  0  0  0  0  0  0  0  0  0
    4.2988    0.6610   -0.2096 C   0  0  2  0  0  0  0  0  0  0  0  0
    3.2705    1.6846    0.1067 C   0  0  0  0  0  0  0  0  0  0  0  0
   -0.4792    1.7648    0.4898 C   0  0  0  0  0  0  0  0  0  0  0  0
   -5.5343    1.0726   -1.1323 C   0  0  0  0  0  0  0  0  0  0  0  0
    1.1198    3.6138    0.7261 C   0  0  0  0  0  0  0  0  0  0  0  0
    5.7321    0.9491   -0.2886 C   0  0  0  0  0  0  0  0  0  0  0  0
    2.1375   -2.6476   -1.7307 H   0  0  0  0  0  0  0  0  0  0  0  0
    3.6586   -3.2642    0.9124 H   0  0  0  0  0  0  0  0  0  0  0  0
    3.2924   -4.4340   -0.4327 H   0  0  0  0  0  0  0  0  0  0  0  0
    0.8400   -4.0244   -0.1065 H   0  0  0  0  0  0  0  0  0  0  0  0
    1.2366   -2.8794    1.2515 H   0  0  0  0  0  0  0  0  0  0  0  0
    4.6010   -1.3790   -0.6843 H   0  0  0  0  0  0  0  0  0  0  0  0
   -2.9958    0.2069   -1.6266 H   0  0  0  0  0  0  0  0  0  0  0  0
   -2.8851    1.7383   -0.7679 H   0  0  0  0  0  0  0  0  0  0  0  0
   -4.6478    1.0938    0.8143 H   0  0  0  0  0  0  0  0  0  0  0  0
   -0.1001   -1.5108   -0.3038 H   0  0  0  0  0  0  0  0  0  0  0  0
   -1.8347   -1.6771    1.5039 H   0  0  0  0  0  0  0  0  0  0  0  0
   -2.3255   -2.0248   -0.1678 H   0  0  0  0  0  0  0  0  0  0  0  0
   -4.1900   -2.4781    1.3413 H   0  0  0  0  0  0  0  0  0  0  0  0
   -4.0568   -0.8957    2.0967 H   0  0  0  0  0  0  0  0  0  0  0  0
   -4.7576   -1.4212   -0.7156 H   0  0  0  0  0  0  0  0  0  0  0  0
   -5.3415    2.1331   -1.3270 H   0  0  0  0  0  0  0  0  0  0  0  0
   -5.4749    0.5391   -2.0876 H   0  0  0  0  0  0  0  0  0  0  0  0
   -6.5608    0.9847   -0.7589 H   0  0  0  0  0  0  0  0  0  0  0  0
    1.7503    3.7275    1.6141 H   0  0  0  0  0  0  0  0  0  0  0  0
    1.5804    4.0999   -0.1400 H   0  0  0  0  0  0  0  0  0  0  0  0
    0.2035    4.1772    0.9343 H   0  0  0  0  0  0  0  0  0  0  0  0
    6.8677    2.4567   -0.7543 H   0  0  0  0  0  0  0  0  0  0  0  0
  1 23  1  0  0  0  0
  2 22  2  0  0  0  0
  3 26  1  0  0  0  0
  3 48  1  0  0  0  0
  4 26  2  0  0  0  0
  5  8  1  0  0  0  0
  5 11  1  0  0  0  0
  5 12  2  0  0  0  0
  6 14  1  0  0  0  0
  6 15  1  0  0  0  0
  6 18  1  0  0  0  0
  7 17  1  0  0  0  0
  7 19  1  0  0  0  0
  7 41  1  0  0  0  0
  8  9  1  0  0  0  0
  8 10  1  0  0  0  0
  8 27  1  0  0  0  0
  9 10  1  0  0  0  0
  9 28  1  0  0  0  0
  9 29  1  0  0  0  0
 10 30  1  0  0  0  0
 10 31  1  0  0  0  0
 11 13  2  0  0  0  0
 11 16  1  0  0  0  0
 12 21  1  0  0  0  0
 12 32  1  0  0  0  0
 13 20  1  0  0  0  0
 13 22  1  0  0  0  0
 14 16  2  0  0  0  0
 14 23  1  0  0  0  0
 15 17  1  0  0  0  0
 15 33  1  0  0  0  0
 15 34  1  0  0  0  0
 16 36  1  0  0  0  0
 17 24  1  0  0  0  0
 17 35  1  1  0  0  0
 18 19  1  0  0  0  0
 18 37  1  0  0  0  0
 18 38  1  0  0  0  0
 19 39  1  0  0  0  0
 19 40  1  0  0  0  0
 20 23  2  0  0  0  0
 20 25  1  0  0  0  0
 21 22  1  0  0  0  0
 21 26  1  6  0  0  0
 24 42  1  0  0  0  0
 24 43  1  0  0  0  0
 24 44  1  0  0  0  0
 25 45  1  0  0  0  0
 25 46  1  0  0  0  0
 25 47  1  0  0  0  0
M  END
