DB00369
 OpenBabel07062211533D

 32 32  0  0  1  0  0  0  0  0999 V2000
    2.5811    2.2083    0.2797 P   0  0  0  0  0  0  0  0  0  0  0  0
    1.1715    0.1293   -0.0991 O   0  0  0  0  0  0  0  0  0  0  0  0
    1.6510   -3.4629    0.2136 O   0  0  0  0  0  0  0  0  0  0  0  0
    3.0927    2.1401   -1.2519 O   0  0  0  0  0  0  0  0  0  0  0  0
    3.9251    2.5613    1.1049 O   0  0  0  0  0  0  0  0  0  0  0  0
    1.4239    3.1297    0.5267 O   0  0  0  0  0  0  0  0  0  0  0  0
   -0.9217    0.8144   -2.1143 O   0  0  0  0  0  0  0  0  0  0  0  0
   -1.5571   -0.7149   -0.5097 N   0  0  0  0  0  0  0  0  0  0  0  0
   -2.8451    1.2444   -0.9887 N   0  0  0  0  0  0  0  0  0  0  0  0
   -4.8141    1.6800    0.1697 N   0  0  0  0  0  0  0  0  0  0  0  0
    0.7888   -1.2244    0.1475 C   0  0  1  0  0  0  0  0  0  0  0  0
   -0.4077   -1.5857   -0.7306 C   0  0  0  0  0  0  0  0  0  0  0  0
    2.0018   -2.1171   -0.0937 C   0  0  0  0  0  0  0  0  0  0  0  0
    2.2825    0.5040    0.6994 C   0  0  0  0  0  0  0  0  0  0  0  0
   -2.4696   -1.0857    0.4509 C   0  0  0  0  0  0  0  0  0  0  0  0
   -1.7303    0.4668   -1.2516 C   0  0  0  0  0  0  0  0  0  0  0  0
   -3.5473   -0.3511    0.7195 C   0  0  0  0  0  0  0  0  0  0  0  0
   -3.7129    0.8930   -0.0762 C   0  0  0  0  0  0  0  0  0  0  0  0
    0.4761   -1.3126    1.1969 H   0  0  0  0  0  0  0  0  0  0  0  0
   -0.1173   -1.4898   -1.7843 H   0  0  0  0  0  0  0  0  0  0  0  0
   -0.7121   -2.6288   -0.5807 H   0  0  0  0  0  0  0  0  0  0  0  0
    2.8484   -1.8990    0.5580 H   0  0  0  0  0  0  0  0  0  0  0  0
    2.3413   -2.0581   -1.1334 H   0  0  0  0  0  0  0  0  0  0  0  0
    2.0610    0.3925    1.7650 H   0  0  0  0  0  0  0  0  0  0  0  0
    3.2033   -0.0157    0.4310 H   0  0  0  0  0  0  0  0  0  0  0  0
   -2.2747   -2.0060    0.9902 H   0  0  0  0  0  0  0  0  0  0  0  0
   -4.2757   -0.6231    1.4717 H   0  0  0  0  0  0  0  0  0  0  0  0
    2.4313   -4.0119    0.0254 H   0  0  0  0  0  0  0  0  0  0  0  0
    3.2962    2.9764   -1.7223 H   0  0  0  0  0  0  0  0  0  0  0  0
    4.2811    3.4743    1.0647 H   0  0  0  0  0  0  0  0  0  0  0  0
   -5.5048    1.4346    0.8713 H   0  0  0  0  0  0  0  0  0  0  0  0
   -4.9669    2.5381   -0.3493 H   0  0  0  0  0  0  0  0  0  0  0  0
  1  4  1  0  0  0  0
  1  5  1  0  0  0  0
  1  6  2  0  0  0  0
  1 14  1  0  0  0  0
  2 11  1  0  0  0  0
  2 14  1  0  0  0  0
  3 13  1  0  0  0  0
  3 28  1  0  0  0  0
  4 29  1  0  0  0  0
  5 30  1  0  0  0  0
  7 16  2  0  0  0  0
  8 12  1  0  0  0  0
  8 15  1  0  0  0  0
  8 16  1  0  0  0  0
  9 16  1  0  0  0  0
  9 18  2  0  0  0  0
 10 18  1  0  0  0  0
 10 31  1  0  0  0  0
 10 32  1  0  0  0  0
 11 12  1  0  0  0  0
 11 13  1  0  0  0  0
 11 19  1  1  0  0  0
 12 20  1  0  0  0  0
 12 21  1  0  0  0  0
 13 22  1  0  0  0  0
 13 23  1  0  0  0  0
 14 24  1  0  0  0  0
 14 25  1  0  0  0  0
 15 17  2  0  0  0  0
 15 26  1  0  0  0  0
 17 18  1  0  0  0  0
 17 27  1  0  0  0  0
M  END
