DB00129
 OpenBabel07062211533D

 21 20  0  0  1  0  0  0  0  0999 V2000
   -2.1064    1.9443    0.0564 O   0  0  0  0  0  0  0  0  0  0  0  0
   -2.5540    0.4607   -1.5982 O   0  0  0  0  0  0  0  0  0  0  0  0
   -1.8701   -1.6749   -0.0703 N   0  0  0  0  0  0  0  0  0  0  0  0
    3.1661    0.2414   -0.7869 N   0  0  0  0  0  0  0  0  0  0  0  0
   -0.2078   -0.1166    0.9497 C   0  0  0  0  0  0  0  0  0  0  0  0
    0.8075   -0.0898   -0.2015 C   0  0  0  0  0  0  0  0  0  0  0  0
   -1.6649   -0.3545    0.5244 C   0  0  1  0  0  0  0  0  0  0  0  0
    2.2144    0.2111    0.3173 C   0  0  0  0  0  0  0  0  0  0  0  0
   -2.1547    0.6892   -0.4637 C   0  0  0  0  0  0  0  0  0  0  0  0
    0.0851   -0.8930    1.6685 H   0  0  0  0  0  0  0  0  0  0  0  0
   -0.1495    0.8373    1.4899 H   0  0  0  0  0  0  0  0  0  0  0  0
    0.5217    0.6725   -0.9360 H   0  0  0  0  0  0  0  0  0  0  0  0
    0.8082   -1.0562   -0.7196 H   0  0  0  0  0  0  0  0  0  0  0  0
   -2.3090   -0.2925    1.4094 H   0  0  0  0  0  0  0  0  0  0  0  0
    2.5223   -0.5516    1.0411 H   0  0  0  0  0  0  0  0  0  0  0  0
    2.2290    1.1806    0.8267 H   0  0  0  0  0  0  0  0  0  0  0  0
   -1.3491   -1.7536   -0.9424 H   0  0  0  0  0  0  0  0  0  0  0  0
   -2.8532   -1.7971   -0.3104 H   0  0  0  0  0  0  0  0  0  0  0  0
    3.1824   -0.6656   -1.2515 H   0  0  0  0  0  0  0  0  0  0  0  0
    4.1050    0.3912   -0.4197 H   0  0  0  0  0  0  0  0  0  0  0  0
   -2.4230    2.6172   -0.5834 H   0  0  0  0  0  0  0  0  0  0  0  0
  1  9  1  0  0  0  0
  1 21  1  0  0  0  0
  2  9  2  0  0  0  0
  3  7  1  0  0  0  0
  3 17  1  0  0  0  0
  3 18  1  0  0  0  0
  4  8  1  0  0  0  0
  4 19  1  0  0  0  0
  4 20  1  0  0  0  0
  5  6  1  0  0  0  0
  5  7  1  0  0  0  0
  5 10  1  0  0  0  0
  5 11  1  0  0  0  0
  6  8  1  0  0  0  0
  6 12  1  0  0  0  0
  6 13  1  0  0  0  0
  7  9  1  0  0  0  0
  7 14  1  1  0  0  0
  8 15  1  0  0  0  0
  8 16  1  0  0  0  0
M  END
