DB00393
 OpenBabel07062211533D

 56 57  0  0  1  0  0  0  0  0999 V2000
   -3.4493   -0.3161    0.5425 O   0  0  0  0  0  0  0  0  0  0  0  0
    2.4142    0.8563    1.2418 O   0  0  0  0  0  0  0  0  0  0  0  0
   -3.2792   -0.4052   -1.7646 O   0  0  0  0  0  0  0  0  0  0  0  0
    1.0757    1.4882    3.0218 O   0  0  0  0  0  0  0  0  0  0  0  0
    4.2794   -1.1413    0.6179 O   0  0  0  0  0  0  0  0  0  0  0  0
    2.6935   -2.2490   -3.7995 O   0  0  0  0  0  0  0  0  0  0  0  0
    2.0378   -0.1540   -3.8040 O   0  0  0  0  0  0  0  0  0  0  0  0
   -0.8082    3.0702   -0.7133 N   0  0  0  0  0  0  0  0  0  0  0  0
    2.0791   -1.2901   -3.2727 N   0  0  0  0  0  0  0  0  0  0  0  0
   -0.6778    0.4812    0.4330 C   0  0  2  0  0  0  0  0  0  0  0  0
   -1.8239    0.9461   -0.4710 C   0  0  0  0  0  0  0  0  0  0  0  0
    0.2959    1.6099    0.7870 C   0  0  0  0  0  0  0  0  0  0  0  0
    0.0638   -0.6499   -0.2190 C   0  0  0  0  0  0  0  0  0  0  0  0
   -1.8295    2.1839   -1.0152 C   0  0  0  0  0  0  0  0  0  0  0  0
    0.2091    2.8223    0.1942 C   0  0  0  0  0  0  0  0  0  0  0  0
   -2.9313   -0.0030   -0.6698 C   0  0  0  0  0  0  0  0  0  0  0  0
    0.7207   -0.4462   -1.4327 C   0  0  0  0  0  0  0  0  0  0  0  0
    1.2879    1.3201    1.8352 C   0  0  0  0  0  0  0  0  0  0  0  0
    0.0962   -1.9046    0.3893 C   0  0  0  0  0  0  0  0  0  0  0  0
   -2.8780    2.7183   -1.9533 C   0  0  0  0  0  0  0  0  0  0  0  0
    1.1419    3.9788    0.4331 C   0  0  0  0  0  0  0  0  0  0  0  0
    1.4099   -1.4970   -2.0376 C   0  0  0  0  0  0  0  0  0  0  0  0
    0.7854   -2.9556   -0.2156 C   0  0  0  0  0  0  0  0  0  0  0  0
   -4.5438   -1.2379    0.5149 C   0  0  0  0  0  0  0  0  0  0  0  0
    1.4423   -2.7518   -1.4291 C   0  0  0  0  0  0  0  0  0  0  0  0
    3.4805    0.5266    2.1378 C   0  0  0  0  0  0  0  0  0  0  0  0
   -4.0038   -2.6583    0.5825 C   0  0  0  0  0  0  0  0  0  0  0  0
   -5.4842   -0.9336    1.6711 C   0  0  0  0  0  0  0  0  0  0  0  0
    4.6650    0.0254    1.3343 C   0  0  0  0  0  0  0  0  0  0  0  0
    5.3478   -1.6436   -0.1727 C   0  0  0  0  0  0  0  0  0  0  0  0
   -1.1169    0.1476    1.3839 H   0  0  0  0  0  0  0  0  0  0  0  0
   -0.8413    3.9885   -1.1418 H   0  0  0  0  0  0  0  0  0  0  0  0
    0.6904    0.5353   -1.8990 H   0  0  0  0  0  0  0  0  0  0  0  0
   -0.4111   -2.0791    1.3343 H   0  0  0  0  0  0  0  0  0  0  0  0
   -3.2397    3.6906   -1.6006 H   0  0  0  0  0  0  0  0  0  0  0  0
   -3.7536    2.0711   -2.0429 H   0  0  0  0  0  0  0  0  0  0  0  0
   -2.4532    2.8531   -2.9536 H   0  0  0  0  0  0  0  0  0  0  0  0
    1.6215    4.2770   -0.5055 H   0  0  0  0  0  0  0  0  0  0  0  0
    1.9365    3.7462    1.1477 H   0  0  0  0  0  0  0  0  0  0  0  0
    0.5864    4.8376    0.8249 H   0  0  0  0  0  0  0  0  0  0  0  0
    0.8105   -3.9323    0.2588 H   0  0  0  0  0  0  0  0  0  0  0  0
   -5.1233   -1.1175   -0.4096 H   0  0  0  0  0  0  0  0  0  0  0  0
    1.9701   -3.5932   -1.8706 H   0  0  0  0  0  0  0  0  0  0  0  0
    3.1340   -0.2598    2.8184 H   0  0  0  0  0  0  0  0  0  0  0  0
    3.7665    1.4149    2.7119 H   0  0  0  0  0  0  0  0  0  0  0  0
   -3.3999   -2.8031    1.4851 H   0  0  0  0  0  0  0  0  0  0  0  0
   -4.8152   -3.3926    0.5824 H   0  0  0  0  0  0  0  0  0  0  0  0
   -3.3485   -2.8676   -0.2696 H   0  0  0  0  0  0  0  0  0  0  0  0
   -5.8541    0.0950    1.6003 H   0  0  0  0  0  0  0  0  0  0  0  0
   -6.3411   -1.6139    1.6794 H   0  0  0  0  0  0  0  0  0  0  0  0
   -4.9619   -1.0141    2.6308 H   0  0  0  0  0  0  0  0  0  0  0  0
    4.9773    0.7942    0.6181 H   0  0  0  0  0  0  0  0  0  0  0  0
    5.4996   -0.2084    2.0042 H   0  0  0  0  0  0  0  0  0  0  0  0
    5.6543   -0.9033   -0.9181 H   0  0  0  0  0  0  0  0  0  0  0  0
    6.1978   -1.9178    0.4596 H   0  0  0  0  0  0  0  0  0  0  0  0
    4.9978   -2.5383   -0.6947 H   0  0  0  0  0  0  0  0  0  0  0  0
  1 16  1  0  0  0  0
  1 24  1  0  0  0  0
  2 18  1  0  0  0  0
  2 26  1  0  0  0  0
  3 16  2  0  0  0  0
  4 18  2  0  0  0  0
  5 29  1  0  0  0  0
  5 30  1  0  0  0  0
  6  9  1  0  0  0  0
  7  9  2  0  0  0  0
  8 14  1  0  0  0  0
  8 15  1  0  0  0  0
  8 32  1  0  0  0  0
  9 22  1  0  0  0  0
 10 11  1  0  0  0  0
 10 12  1  0  0  0  0
 10 13  1  0  0  0  0
 10 31  1  1  0  0  0
 11 14  2  0  0  0  0
 11 16  1  0  0  0  0
 12 15  2  0  0  0  0
 12 18  1  0  0  0  0
 13 17  2  0  0  0  0
 13 19  1  0  0  0  0
 14 20  1  0  0  0  0
 15 21  1  0  0  0  0
 17 22  1  0  0  0  0
 17 33  1  0  0  0  0
 19 23  2  0  0  0  0
 19 34  1  0  0  0  0
 20 35  1  0  0  0  0
 20 36  1  0  0  0  0
 20 37  1  0  0  0  0
 21 38  1  0  0  0  0
 21 39  1  0  0  0  0
 21 40  1  0  0  0  0
 22 25  2  0  0  0  0
 23 25  1  0  0  0  0
 23 41  1  0  0  0  0
 24 27  1  0  0  0  0
 24 28  1  0  0  0  0
 24 42  1  0  0  0  0
 25 43  1  0  0  0  0
 26 29  1  0  0  0  0
 26 44  1  0  0  0  0
 26 45  1  0  0  0  0
 27 46  1  0  0  0  0
 27 47  1  0  0  0  0
 27 48  1  0  0  0  0
 28 49  1  0  0  0  0
 28 50  1  0  0  0  0
 28 51  1  0  0  0  0
 29 52  1  0  0  0  0
 29 53  1  0  0  0  0
 30 54  1  0  0  0  0
 30 55  1  0  0  0  0
 30 56  1  0  0  0  0
M  END
