DB00807
 OpenBabel07062211533D

 47 47  0  0  0  0  0  0  0  0999 V2000
    1.1550   -0.7169    0.1369 O   0  0  0  0  0  0  0  0  0  0  0  0
   -4.9566   -0.0257   -1.0066 O   0  0  0  0  0  0  0  0  0  0  0  0
    0.5516   -2.9191    0.4294 O   0  0  0  0  0  0  0  0  0  0  0  0
    4.7445   -0.0398    0.6300 N   0  0  0  0  0  0  0  0  0  0  0  0
   -2.8582    1.8490   -0.9894 N   0  0  0  0  0  0  0  0  0  0  0  0
    3.3402    0.2367    0.3296 C   0  0  0  0  0  0  0  0  0  0  0  0
    5.4105   -0.6249   -0.5331 C   0  0  0  0  0  0  0  0  0  0  0  0
    5.4280    1.1835    1.0488 C   0  0  0  0  0  0  0  0  0  0  0  0
    2.5116   -1.0348    0.4188 C   0  0  0  0  0  0  0  0  0  0  0  0
    6.8552   -0.9755   -0.2196 C   0  0  0  0  0  0  0  0  0  0  0  0
    5.4313    2.2186   -0.0633 C   0  0  0  0  0  0  0  0  0  0  0  0
   -1.0997   -1.2947   -0.1358 C   0  0  0  0  0  0  0  0  0  0  0  0
    0.2764   -1.7564    0.1764 C   0  0  0  0  0  0  0  0  0  0  0  0
   -3.6859   -0.4284   -0.7223 C   0  0  0  0  0  0  0  0  0  0  0  0
   -2.6310    0.4842   -0.7084 C   0  0  0  0  0  0  0  0  0  0  0  0
   -1.3380    0.0510   -0.4151 C   0  0  0  0  0  0  0  0  0  0  0  0
   -2.1547   -2.2073   -0.1497 C   0  0  0  0  0  0  0  0  0  0  0  0
   -5.9442   -0.2409   -0.0008 C   0  0  0  0  0  0  0  0  0  0  0  0
   -3.4477   -1.7743   -0.4428 C   0  0  0  0  0  0  0  0  0  0  0  0
   -7.0172    0.8295   -0.1281 C   0  0  0  0  0  0  0  0  0  0  0  0
   -8.0996    0.6723    0.9247 C   0  0  0  0  0  0  0  0  0  0  0  0
    3.1936    0.6972   -0.6564 H   0  0  0  0  0  0  0  0  0  0  0  0
    2.9159    0.9441    1.0555 H   0  0  0  0  0  0  0  0  0  0  0  0
    4.9230   -1.5729   -0.7881 H   0  0  0  0  0  0  0  0  0  0  0  0
    5.3510   -0.0119   -1.4393 H   0  0  0  0  0  0  0  0  0  0  0  0
    4.9177    1.6015    1.9264 H   0  0  0  0  0  0  0  0  0  0  0  0
    6.4474    0.9873    1.3976 H   0  0  0  0  0  0  0  0  0  0  0  0
    2.8466   -1.7840   -0.3061 H   0  0  0  0  0  0  0  0  0  0  0  0
    2.5811   -1.4607    1.4274 H   0  0  0  0  0  0  0  0  0  0  0  0
    7.5015   -0.0939   -0.1726 H   0  0  0  0  0  0  0  0  0  0  0  0
    6.9429   -1.5299    0.7210 H   0  0  0  0  0  0  0  0  0  0  0  0
    7.2568   -1.6165   -1.0127 H   0  0  0  0  0  0  0  0  0  0  0  0
    4.4316    2.4935   -0.4109 H   0  0  0  0  0  0  0  0  0  0  0  0
    6.0417    1.9298   -0.9233 H   0  0  0  0  0  0  0  0  0  0  0  0
    5.8793    3.1421    0.3238 H   0  0  0  0  0  0  0  0  0  0  0  0
   -0.5367    0.7857   -0.4118 H   0  0  0  0  0  0  0  0  0  0  0  0
   -1.9898   -3.2602    0.0633 H   0  0  0  0  0  0  0  0  0  0  0  0
   -6.3830   -1.2350   -0.1434 H   0  0  0  0  0  0  0  0  0  0  0  0
   -5.4957   -0.1949    1.0002 H   0  0  0  0  0  0  0  0  0  0  0  0
   -4.2574   -2.4987   -0.4585 H   0  0  0  0  0  0  0  0  0  0  0  0
   -6.5581    1.8219   -0.0437 H   0  0  0  0  0  0  0  0  0  0  0  0
   -7.4619    0.7877   -1.1296 H   0  0  0  0  0  0  0  0  0  0  0  0
   -8.5960   -0.2993    0.8349 H   0  0  0  0  0  0  0  0  0  0  0  0
   -7.6812    0.7528    1.9330 H   0  0  0  0  0  0  0  0  0  0  0  0
   -8.8578    1.4530    0.8087 H   0  0  0  0  0  0  0  0  0  0  0  0
   -3.7946    2.1695   -1.1986 H   0  0  0  0  0  0  0  0  0  0  0  0
   -2.0894    2.5059   -0.9764 H   0  0  0  0  0  0  0  0  0  0  0  0
  1  9  1  0  0  0  0
  1 13  1  0  0  0  0
  2 14  1  0  0  0  0
  2 18  1  0  0  0  0
  3 13  2  0  0  0  0
  4  6  1  0  0  0  0
  4  7  1  0  0  0  0
  4  8  1  0  0  0  0
  5 15  1  0  0  0  0
  5 46  1  0  0  0  0
  5 47  1  0  0  0  0
  6  9  1  0  0  0  0
  6 22  1  0  0  0  0
  6 23  1  0  0  0  0
  7 10  1  0  0  0  0
  7 24  1  0  0  0  0
  7 25  1  0  0  0  0
  8 11  1  0  0  0  0
  8 26  1  0  0  0  0
  8 27  1  0  0  0  0
  9 28  1  0  0  0  0
  9 29  1  0  0  0  0
 10 30  1  0  0  0  0
 10 31  1  0  0  0  0
 10 32  1  0  0  0  0
 11 33  1  0  0  0  0
 11 34  1  0  0  0  0
 11 35  1  0  0  0  0
 12 13  1  0  0  0  0
 12 16  2  0  0  0  0
 12 17  1  0  0  0  0
 14 15  2  0  0  0  0
 14 19  1  0  0  0  0
 15 16  1  0  0  0  0
 16 36  1  0  0  0  0
 17 19  2  0  0  0  0
 17 37  1  0  0  0  0
 18 20  1  0  0  0  0
 18 38  1  0  0  0  0
 18 39  1  0  0  0  0
 19 40  1  0  0  0  0
 20 21  1  0  0  0  0
 20 41  1  0  0  0  0
 20 42  1  0  0  0  0
 21 43  1  0  0  0  0
 21 44  1  0  0  0  0
 21 45  1  0  0  0  0
M  END
