DB00903
 OpenBabel07062211533D

 31 31  0  0  0  0  0  0  0  0999 V2000
    1.1024   -2.6772    0.1513 Cl  0  0  0  0  0  0  0  0  0  0  0  0
   -2.0762   -2.9708    0.0714 Cl  0  0  0  0  0  0  0  0  0  0  0  0
   -3.4941   -0.4788    0.8114 O   0  0  0  0  0  0  0  0  0  0  0  0
    2.6835   -0.1473    2.0083 O   0  0  0  0  0  0  0  0  0  0  0  0
   -6.1480    0.5906   -1.3510 O   0  0  0  0  0  0  0  0  0  0  0  0
   -5.8583   -1.3617   -0.2139 O   0  0  0  0  0  0  0  0  0  0  0  0
    0.6217   -0.1234    0.9058 C   0  0  0  0  0  0  0  0  0  0  0  0
    2.8154    0.5705   -0.2495 C   0  0  0  0  0  0  0  0  0  0  0  0
    2.0871    0.0758    0.9589 C   0  0  0  0  0  0  0  0  0  0  0  0
    4.3165    0.6495   -0.1665 C   0  0  0  0  0  0  0  0  0  0  0  0
    0.0674   -1.3400    0.5484 C   0  0  0  0  0  0  0  0  0  0  0  0
   -0.1703    0.9661    1.2293 C   0  0  0  0  0  0  0  0  0  0  0  0
   -2.1337   -0.3858    0.8358 C   0  0  0  0  0  0  0  0  0  0  0  0
   -1.3208   -1.4726    0.5130 C   0  0  0  0  0  0  0  0  0  0  0  0
   -1.5584    0.8335    1.1937 C   0  0  0  0  0  0  0  0  0  0  0  0
    4.9772   -0.6798   -0.5051 C   0  0  0  0  0  0  0  0  0  0  0  0
    2.1388    0.8319   -1.3778 C   0  0  0  0  0  0  0  0  0  0  0  0
   -4.1861    0.3957   -0.0766 C   0  0  0  0  0  0  0  0  0  0  0  0
   -5.4673   -0.2477   -0.5292 C   0  0  0  0  0  0  0  0  0  0  0  0
    4.6309    0.9815    0.8299 H   0  0  0  0  0  0  0  0  0  0  0  0
    4.6861    1.4134   -0.8625 H   0  0  0  0  0  0  0  0  0  0  0  0
    0.2677    1.9192    1.5119 H   0  0  0  0  0  0  0  0  0  0  0  0
   -2.1769    1.6872    1.4570 H   0  0  0  0  0  0  0  0  0  0  0  0
    6.0663   -0.5843   -0.4475 H   0  0  0  0  0  0  0  0  0  0  0  0
    4.6705   -1.4658    0.1930 H   0  0  0  0  0  0  0  0  0  0  0  0
    4.7206   -1.0049   -1.5189 H   0  0  0  0  0  0  0  0  0  0  0  0
    2.6723    1.1514   -2.2687 H   0  0  0  0  0  0  0  0  0  0  0  0
    1.0641    0.7497   -1.4808 H   0  0  0  0  0  0  0  0  0  0  0  0
   -4.4276    1.3211    0.4562 H   0  0  0  0  0  0  0  0  0  0  0  0
   -3.5807    0.6082   -0.9661 H   0  0  0  0  0  0  0  0  0  0  0  0
   -6.9903    0.1949   -1.6613 H   0  0  0  0  0  0  0  0  0  0  0  0
  1 11  1  0  0  0  0
  2 14  1  0  0  0  0
  3 13  1  0  0  0  0
  3 18  1  0  0  0  0
  4  9  2  0  0  0  0
  5 19  1  0  0  0  0
  5 31  1  0  0  0  0
  6 19  2  0  0  0  0
  7  9  1  0  0  0  0
  7 11  2  0  0  0  0
  7 12  1  0  0  0  0
  8  9  1  0  0  0  0
  8 10  1  0  0  0  0
  8 17  2  0  0  0  0
 10 16  1  0  0  0  0
 10 20  1  0  0  0  0
 10 21  1  0  0  0  0
 11 14  1  0  0  0  0
 12 15  2  0  0  0  0
 12 22  1  0  0  0  0
 13 14  2  0  0  0  0
 13 15  1  0  0  0  0
 15 23  1  0  0  0  0
 16 24  1  0  0  0  0
 16 25  1  0  0  0  0
 16 26  1  0  0  0  0
 17 27  1  0  0  0  0
 17 28  1  0  0  0  0
 18 19  1  0  0  0  0
 18 29  1  0  0  0  0
 18 30  1  0  0  0  0
M  END
