DB01406
 OpenBabel07062211533D

 52 56  0  0  1  0  0  0  0  0999 V2000
    4.7700   -1.3142   -0.4637 O   0  0  0  0  0  0  0  0  0  0  0  0
   -5.9948    0.3618    1.1237 O   0  0  0  0  0  0  0  0  0  0  0  0
   -6.5093   -0.9260    1.0370 N   0  0  0  0  0  0  0  0  0  0  0  0
    1.7542    0.6243    0.3323 C   0  0  2  0  0  0  0  0  0  0  0  0
    2.3949   -0.6029   -0.3536 C   0  0  2  0  0  0  0  0  0  0  0  0
    0.3395    0.9300   -0.1780 C   0  0  1  0  0  0  0  0  0  0  0  0
   -0.5704   -0.3114    0.0794 C   0  0  1  0  0  0  0  0  0  0  0  0
   -2.0669   -0.0874   -0.3645 C   0  0  2  0  0  0  0  0  0  0  0  0
    1.5184   -1.8311   -0.0457 C   0  0  0  0  0  0  0  0  0  0  0  0
    3.8185   -0.5722    0.2853 C   0  0  2  0  0  0  0  0  0  0  0  0
    0.0583   -1.6158   -0.4850 C   0  0  0  0  0  0  0  0  0  0  0  0
    2.8273    1.7041    0.2073 C   0  0  0  0  0  0  0  0  0  0  0  0
   -0.2448    2.1671    0.5166 C   0  0  0  0  0  0  0  0  0  0  0  0
    4.1662    0.9413    0.2917 C   0  0  0  0  0  0  0  0  0  0  0  0
   -2.5745    1.2790    0.1875 C   0  0  0  0  0  0  0  0  0  0  0  0
    2.5097   -0.4569   -1.8994 C   0  0  0  0  0  0  0  0  0  0  0  0
   -1.6539    2.4638    0.0224 C   0  0  0  0  0  0  0  0  0  0  0  0
   -2.9193   -1.3182    0.1480 C   0  0  0  0  0  0  0  0  0  0  0  0
   -2.2101   -0.0273   -1.9055 C   0  0  0  0  0  0  0  0  0  0  0  0
    3.8499   -1.0931    1.6666 C   0  0  0  0  0  0  0  0  0  0  0  0
   -3.7955    1.4609    0.7340 C   0  0  0  0  0  0  0  0  0  0  0  0
   -4.3086   -0.9428    0.4998 C   0  0  0  0  0  0  0  0  0  0  0  0
   -4.6684    0.3541    0.7925 C   0  0  0  0  0  0  0  0  0  0  0  0
   -5.4812   -1.6925    0.6647 C   0  0  0  0  0  0  0  0  0  0  0  0
    3.8754   -1.5170    2.7895 C   0  0  0  0  0  0  0  0  0  0  0  0
    1.6529    0.4162    1.4095 H   0  0  0  0  0  0  0  0  0  0  0  0
    0.3804    1.1420   -1.2520 H   0  0  0  0  0  0  0  0  0  0  0  0
   -0.5925   -0.4435    1.1737 H   0  0  0  0  0  0  0  0  0  0  0  0
    1.5057   -2.0467    1.0289 H   0  0  0  0  0  0  0  0  0  0  0  0
    1.9231   -2.7245   -0.5362 H   0  0  0  0  0  0  0  0  0  0  0  0
    0.0098   -1.6215   -1.5780 H   0  0  0  0  0  0  0  0  0  0  0  0
   -0.5202   -2.4852   -0.1527 H   0  0  0  0  0  0  0  0  0  0  0  0
    2.7478    2.4491    1.0058 H   0  0  0  0  0  0  0  0  0  0  0  0
    2.7532    2.2355   -0.7482 H   0  0  0  0  0  0  0  0  0  0  0  0
    0.3853    3.0428    0.3219 H   0  0  0  0  0  0  0  0  0  0  0  0
   -0.2571    2.0203    1.6044 H   0  0  0  0  0  0  0  0  0  0  0  0
    4.7971    1.2081   -0.5650 H   0  0  0  0  0  0  0  0  0  0  0  0
    4.7207    1.2381    1.1901 H   0  0  0  0  0  0  0  0  0  0  0  0
    3.1546    0.3773   -2.1931 H   0  0  0  0  0  0  0  0  0  0  0  0
    2.9406   -1.3647   -2.3379 H   0  0  0  0  0  0  0  0  0  0  0  0
    1.5465   -0.2954   -2.3895 H   0  0  0  0  0  0  0  0  0  0  0  0
   -1.6196    2.7445   -1.0373 H   0  0  0  0  0  0  0  0  0  0  0  0
   -2.0361    3.3403    0.5602 H   0  0  0  0  0  0  0  0  0  0  0  0
   -2.4668   -1.7314    1.0596 H   0  0  0  0  0  0  0  0  0  0  0  0
   -2.9235   -2.1268   -0.5929 H   0  0  0  0  0  0  0  0  0  0  0  0
   -1.5689    0.7378   -2.3542 H   0  0  0  0  0  0  0  0  0  0  0  0
   -1.9558   -0.9824   -2.3762 H   0  0  0  0  0  0  0  0  0  0  0  0
   -3.2419    0.2031   -2.1975 H   0  0  0  0  0  0  0  0  0  0  0  0
   -4.1386    2.4302    1.0772 H   0  0  0  0  0  0  0  0  0  0  0  0
    5.6566   -1.0935   -0.1299 H   0  0  0  0  0  0  0  0  0  0  0  0
   -5.6351   -2.7544    0.5408 H   0  0  0  0  0  0  0  0  0  0  0  0
    3.8971   -1.8929    3.7856 H   0  0  0  0  0  0  0  0  0  0  0  0
  1 10  1  0  0  0  0
  1 50  1  0  0  0  0
  2  3  1  0  0  0  0
  2 23  1  0  0  0  0
  3 24  2  0  0  0  0
  4  5  1  6  0  0  0
  4 12  1  0  0  0  0
  4 26  1  0  0  0  0
  5  9  1  0  0  0  0
  5 10  1  1  0  0  0
  5 16  1  0  0  0  0
  6  4  1  1  0  0  0
  6 13  1  0  0  0  0
  6 27  1  0  0  0  0
  7  6  1  6  0  0  0
  7 11  1  0  0  0  0
  7 28  1  0  0  0  0
  8  7  1  1  0  0  0
  8 15  1  0  0  0  0
  8 18  1  0  0  0  0
  8 19  1  0  0  0  0
  9 11  1  0  0  0  0
  9 29  1  0  0  0  0
  9 30  1  0  0  0  0
 10 14  1  0  0  0  0
 10 20  1  1  0  0  0
 11 31  1  0  0  0  0
 11 32  1  0  0  0  0
 12 14  1  0  0  0  0
 12 33  1  0  0  0  0
 12 34  1  0  0  0  0
 13 17  1  0  0  0  0
 13 35  1  0  0  0  0
 13 36  1  0  0  0  0
 14 37  1  0  0  0  0
 14 38  1  0  0  0  0
 15 17  1  0  0  0  0
 15 21  2  0  0  0  0
 16 39  1  0  0  0  0
 16 40  1  0  0  0  0
 16 41  1  0  0  0  0
 17 42  1  0  0  0  0
 17 43  1  0  0  0  0
 18 22  1  0  0  0  0
 18 44  1  0  0  0  0
 18 45  1  0  0  0  0
 19 46  1  0  0  0  0
 19 47  1  0  0  0  0
 19 48  1  0  0  0  0
 20 25  3  0  0  0  0
 21 23  1  0  0  0  0
 21 49  1  0  0  0  0
 22 23  2  0  0  0  0
 22 24  1  0  0  0  0
 24 51  1  0  0  0  0
 25 52  1  0  0  0  0
M  END
