DB01436
 OpenBabel07062211533D

 73 75  0  0  1  0  0  0  0  0999 V2000
   -8.7499   -0.8768    0.5103 O   0  0  0  0  0  0  0  0  0  0  0  0
   -5.7747    0.9688   -2.0094 O   0  0  0  0  0  0  0  0  0  0  0  0
    0.5646   -0.9155   -0.3565 C   0  0  2  0  0  0  0  0  0  0  0  0
    1.8765   -0.1092   -0.5163 C   0  0  2  0  0  0  0  0  0  0  0  0
   -0.2053    0.0355    0.5929 C   0  0  1  0  0  0  0  0  0  0  0  0
    1.4004    1.3555   -0.6516 C   0  0  0  0  0  0  0  0  0  0  0  0
   -0.0193    1.4079   -0.0572 C   0  0  0  0  0  0  0  0  0  0  0  0
    0.7367   -2.2757    0.3493 C   0  0  0  0  0  0  0  0  0  0  0  0
    2.8029   -0.5382   -1.6450 C   0  0  1  0  0  0  0  0  0  0  0  0
   -1.5617   -0.5164    0.9392 C   0  0  0  0  0  0  0  0  0  0  0  0
   -0.1423   -1.1229   -1.7206 C   0  0  0  0  0  0  0  0  0  0  0  0
   -0.6173   -2.8705    0.7769 C   0  0  0  0  0  0  0  0  0  0  0  0
   -1.4876   -1.8884    1.5779 C   0  0  0  0  0  0  0  0  0  0  0  0
    4.0958    0.3019   -1.7089 C   0  0  0  0  0  0  0  0  0  0  0  0
    3.1707   -2.0193   -1.4889 C   0  0  0  0  0  0  0  0  0  0  0  0
   -2.7266    0.1111    0.7274 C   0  0  0  0  0  0  0  0  0  0  0  0
    4.9526    0.3158   -0.4360 C   0  0  0  0  0  0  0  0  0  0  0  0
    6.1815    1.2251   -0.5365 C   0  0  0  0  0  0  0  0  0  0  0  0
   -4.0046   -0.4535    1.0829 C   0  0  0  0  0  0  0  0  0  0  0  0
    7.0792    1.1834    0.7155 C   0  0  0  0  0  0  0  0  0  0  0  0
   -5.1720    0.1746    0.8709 C   0  0  0  0  0  0  0  0  0  0  0  0
   -6.4937   -0.4645    1.2164 C   0  0  0  0  0  0  0  0  0  0  0  0
   -5.2631    1.4975    0.2565 C   0  0  0  0  0  0  0  0  0  0  0  0
    7.5687   -0.2287    1.0405 C   0  0  0  0  0  0  0  0  0  0  0  0
    6.3191    1.7527    1.9165 C   0  0  0  0  0  0  0  0  0  0  0  0
   -7.4869   -0.4034    0.0536 C   0  0  2  0  0  0  0  0  0  0  0  0
   -6.2812    1.6351   -0.8520 C   0  0  2  0  0  0  0  0  0  0  0  0
   -7.6349    1.0318   -0.4636 C   0  0  0  0  0  0  0  0  0  0  0  0
   -4.5350    2.5442    0.6784 C   0  0  0  0  0  0  0  0  0  0  0  0
    2.4136   -0.1900    0.4386 H   0  0  0  0  0  0  0  0  0  0  0  0
    0.3367    0.0888    1.5523 H   0  0  0  0  0  0  0  0  0  0  0  0
    1.3726    1.6889   -1.6952 H   0  0  0  0  0  0  0  0  0  0  0  0
    2.0734    2.0292   -0.1097 H   0  0  0  0  0  0  0  0  0  0  0  0
   -0.1203    2.2205    0.6699 H   0  0  0  0  0  0  0  0  0  0  0  0
   -0.7445    1.5900   -0.8580 H   0  0  0  0  0  0  0  0  0  0  0  0
    1.2129   -3.0289   -0.2778 H   0  0  0  0  0  0  0  0  0  0  0  0
    1.3650   -2.1603    1.2418 H   0  0  0  0  0  0  0  0  0  0  0  0
    2.3055   -0.4151   -2.6152 H   0  0  0  0  0  0  0  0  0  0  0  0
   -1.1792   -1.4531   -1.6024 H   0  0  0  0  0  0  0  0  0  0  0  0
    0.3597   -1.8830   -2.3263 H   0  0  0  0  0  0  0  0  0  0  0  0
   -0.1740   -0.2052   -2.3169 H   0  0  0  0  0  0  0  0  0  0  0  0
   -1.1704   -3.2041   -0.1095 H   0  0  0  0  0  0  0  0  0  0  0  0
   -0.4388   -3.7681    1.3814 H   0  0  0  0  0  0  0  0  0  0  0  0
   -1.0366   -1.7631    2.5719 H   0  0  0  0  0  0  0  0  0  0  0  0
   -2.4388   -2.3886    1.7523 H   0  0  0  0  0  0  0  0  0  0  0  0
    4.7124   -0.0546   -2.5448 H   0  0  0  0  0  0  0  0  0  0  0  0
    3.8326    1.3368   -1.9617 H   0  0  0  0  0  0  0  0  0  0  0  0
    2.3903   -2.6741   -1.8808 H   0  0  0  0  0  0  0  0  0  0  0  0
    4.0587   -2.2564   -2.0879 H   0  0  0  0  0  0  0  0  0  0  0  0
    3.4065   -2.2879   -0.4546 H   0  0  0  0  0  0  0  0  0  0  0  0
   -2.6745    1.0589    0.2119 H   0  0  0  0  0  0  0  0  0  0  0  0
    5.2631   -0.7111   -0.2219 H   0  0  0  0  0  0  0  0  0  0  0  0
    4.3427    0.6547    0.4045 H   0  0  0  0  0  0  0  0  0  0  0  0
    5.8601    2.2571   -0.7251 H   0  0  0  0  0  0  0  0  0  0  0  0
    6.7783    0.9210   -1.4057 H   0  0  0  0  0  0  0  0  0  0  0  0
   -4.0670   -1.4288    1.5462 H   0  0  0  0  0  0  0  0  0  0  0  0
    7.9519    1.8197    0.5231 H   0  0  0  0  0  0  0  0  0  0  0  0
   -6.9198    0.0445    2.0921 H   0  0  0  0  0  0  0  0  0  0  0  0
   -6.3711   -1.5109    1.5243 H   0  0  0  0  0  0  0  0  0  0  0  0
    6.7638   -0.8796    1.3957 H   0  0  0  0  0  0  0  0  0  0  0  0
    8.3263   -0.1920    1.8312 H   0  0  0  0  0  0  0  0  0  0  0  0
    8.0285   -0.6936    0.1623 H   0  0  0  0  0  0  0  0  0  0  0  0
    5.5032    1.1006    2.2432 H   0  0  0  0  0  0  0  0  0  0  0  0
    6.9979    1.8716    2.7686 H   0  0  0  0  0  0  0  0  0  0  0  0
    5.9027    2.7394    1.6878 H   0  0  0  0  0  0  0  0  0  0  0  0
   -7.1537   -1.0663   -0.7542 H   0  0  0  0  0  0  0  0  0  0  0  0
   -6.4347    2.6852   -1.1275 H   0  0  0  0  0  0  0  0  0  0  0  0
   -8.3088    1.0271   -1.3296 H   0  0  0  0  0  0  0  0  0  0  0  0
   -8.1203    1.6508    0.3024 H   0  0  0  0  0  0  0  0  0  0  0  0
   -4.6401    3.5172    0.2081 H   0  0  0  0  0  0  0  0  0  0  0  0
   -3.8560    2.4908    1.5230 H   0  0  0  0  0  0  0  0  0  0  0  0
   -9.3681   -0.8302   -0.2389 H   0  0  0  0  0  0  0  0  0  0  0  0
   -4.9342    1.3944   -2.2515 H   0  0  0  0  0  0  0  0  0  0  0  0
  1 26  1  0  0  0  0
  1 72  1  0  0  0  0
  2 27  1  0  0  0  0
  2 73  1  0  0  0  0
  3  4  1  6  0  0  0
  3  8  1  0  0  0  0
  3 11  1  0  0  0  0
  4  6  1  0  0  0  0
  4  9  1  0  0  0  0
  4 30  1  1  0  0  0
  5  3  1  6  0  0  0
  5  7  1  0  0  0  0
  5 10  1  0  0  0  0
  5 31  1  0  0  0  0
  6  7  1  0  0  0  0
  6 32  1  0  0  0  0
  6 33  1  0  0  0  0
  7 34  1  0  0  0  0
  7 35  1  0  0  0  0
  8 12  1  0  0  0  0
  8 36  1  0  0  0  0
  8 37  1  0  0  0  0
  9 14  1  0  0  0  0
  9 15  1  0  0  0  0
  9 38  1  6  0  0  0
 10 13  1  0  0  0  0
 10 16  2  0  0  0  0
 11 39  1  0  0  0  0
 11 40  1  0  0  0  0
 11 41  1  0  0  0  0
 12 13  1  0  0  0  0
 12 42  1  0  0  0  0
 12 43  1  0  0  0  0
 13 44  1  0  0  0  0
 13 45  1  0  0  0  0
 14 17  1  0  0  0  0
 14 46  1  0  0  0  0
 14 47  1  0  0  0  0
 15 48  1  0  0  0  0
 15 49  1  0  0  0  0
 15 50  1  0  0  0  0
 16 19  1  0  0  0  0
 16 51  1  0  0  0  0
 17 18  1  0  0  0  0
 17 52  1  0  0  0  0
 17 53  1  0  0  0  0
 18 20  1  0  0  0  0
 18 54  1  0  0  0  0
 18 55  1  0  0  0  0
 19 21  2  0  0  0  0
 19 56  1  0  0  0  0
 20 24  1  0  0  0  0
 20 25  1  0  0  0  0
 20 57  1  0  0  0  0
 21 22  1  0  0  0  0
 21 23  1  0  0  0  0
 22 26  1  0  0  0  0
 22 58  1  0  0  0  0
 22 59  1  0  0  0  0
 23 27  1  0  0  0  0
 23 29  2  0  0  0  0
 24 60  1  0  0  0  0
 24 61  1  0  0  0  0
 24 62  1  0  0  0  0
 25 63  1  0  0  0  0
 25 64  1  0  0  0  0
 25 65  1  0  0  0  0
 26 28  1  0  0  0  0
 26 66  1  6  0  0  0
 27 28  1  0  0  0  0
 27 67  1  6  0  0  0
 28 68  1  0  0  0  0
 28 69  1  0  0  0  0
 29 70  1  0  0  0  0
 29 71  1  0  0  0  0
M  END
