DB01180
 OpenBabel07062211533D

 88 93  0  0  1  0  0  0  0  0999 V2000
   -0.3241    3.0316   -1.3631 O   0  0  0  0  0  0  0  0  0  0  0  0
   -1.7720    0.6585   -0.7468 O   0  0  0  0  0  0  0  0  0  0  0  0
    3.8129    2.9942   -1.0127 O   0  0  0  0  0  0  0  0  0  0  0  0
    2.0069    3.8595    0.1390 O   0  0  0  0  0  0  0  0  0  0  0  0
   -2.5981   -0.3556   -2.6512 O   0  0  0  0  0  0  0  0  0  0  0  0
   10.5462   -0.1100    0.4311 O   0  0  0  0  0  0  0  0  0  0  0  0
   -9.7200   -1.8790   -1.0537 O   0  0  0  0  0  0  0  0  0  0  0  0
   -8.2263    1.5467    1.9413 O   0  0  0  0  0  0  0  0  0  0  0  0
  -10.2302   -0.1398    1.0405 O   0  0  0  0  0  0  0  0  0  0  0  0
    2.5718   -2.1449    0.4863 N   0  0  1  0  0  0  0  0  0  0  0  0
    5.6912   -0.1102    1.0220 N   0  0  0  0  0  0  0  0  0  0  0  0
    2.4802    0.5304   -0.7777 C   0  0  2  0  0  0  0  0  0  0  0  0
    1.7078   -0.6725   -1.3534 C   0  0  1  0  0  0  0  0  0  0  0  0
    2.6680    0.3518    0.7422 C   0  0  0  0  0  0  0  0  0  0  0  0
    1.7766    1.8472   -1.1693 C   0  0  1  0  0  0  0  0  0  0  0  0
    3.2867   -1.0039    1.1227 C   0  0  2  0  0  0  0  0  0  0  0  0
    2.4017   -1.9868   -0.9664 C   0  0  0  0  0  0  0  0  0  0  0  0
    0.2314   -0.6591   -0.9283 C   0  0  0  0  0  0  0  0  0  0  0  0
    0.2946    1.8819   -0.7752 C   0  0  2  0  0  0  0  0  0  0  0  0
   -0.4552    0.6536   -1.2990 C   0  0  2  0  0  0  0  0  0  0  0  0
    4.7669   -1.1073    0.8875 C   0  0  2  0  0  0  0  0  0  0  0  0
    3.2296   -3.4346    0.8126 C   0  0  0  0  0  0  0  0  0  0  0  0
    5.4335   -2.2713    0.5614 C   0  0  0  0  0  0  0  0  0  0  0  0
    4.7029   -3.5529    0.3483 C   0  0  0  0  0  0  0  0  0  0  0  0
    2.5159    3.0214   -0.5928 C   0  0  0  0  0  0  0  0  0  0  0  0
    6.8173   -1.9641    0.4623 C   0  0  0  0  0  0  0  0  0  0  0  0
    6.9514   -0.6028    0.7551 C   0  0  0  0  0  0  0  0  0  0  0  0
   -1.5254    3.3661   -0.6895 C   0  0  0  0  0  0  0  0  0  0  0  0
    7.9737   -2.7074    0.1521 C   0  0  0  0  0  0  0  0  0  0  0  0
   -2.7429    0.1211   -1.5367 C   0  0  0  0  0  0  0  0  0  0  0  0
    8.1897    0.0494    0.7541 C   0  0  0  0  0  0  0  0  0  0  0  0
    9.2177   -2.0664    0.1463 C   0  0  0  0  0  0  0  0  0  0  0  0
    9.3216   -0.7091    0.4428 C   0  0  0  0  0  0  0  0  0  0  0  0
    4.6364    4.0627   -0.5351 C   0  0  0  0  0  0  0  0  0  0  0  0
   -4.0253    0.2162   -0.8030 C   0  0  0  0  0  0  0  0  0  0  0  0
   -5.1475   -0.2474   -1.3714 C   0  0  0  0  0  0  0  0  0  0  0  0
   10.5894    1.2806    0.7427 C   0  0  0  0  0  0  0  0  0  0  0  0
   -6.4786   -0.2190   -0.7399 C   0  0  0  0  0  0  0  0  0  0  0  0
   -6.7320    0.6585    0.3144 C   0  0  0  0  0  0  0  0  0  0  0  0
   -7.4855   -1.0697   -1.1963 C   0  0  0  0  0  0  0  0  0  0  0  0
   -8.7456   -1.0430   -0.5986 C   0  0  0  0  0  0  0  0  0  0  0  0
   -7.9921    0.6853    0.9121 C   0  0  0  0  0  0  0  0  0  0  0  0
   -8.9987   -0.1654    0.4557 C   0  0  0  0  0  0  0  0  0  0  0  0
   -9.8094   -3.1641   -0.4416 C   0  0  0  0  0  0  0  0  0  0  0  0
   -7.9632    1.0687    3.2590 C   0  0  0  0  0  0  0  0  0  0  0  0
  -11.1892    0.7601    0.4899 C   0  0  0  0  0  0  0  0  0  0  0  0
    3.4799    0.5262   -1.2343 H   0  0  0  0  0  0  0  0  0  0  0  0
    1.7340   -0.5999   -2.4500 H   0  0  0  0  0  0  0  0  0  0  0  0
    3.2750    1.1688    1.1483 H   0  0  0  0  0  0  0  0  0  0  0  0
    1.6971    0.4328    1.2463 H   0  0  0  0  0  0  0  0  0  0  0  0
    1.8306    1.9717   -2.2611 H   0  0  0  0  0  0  0  0  0  0  0  0
    3.1472   -1.1079    2.2086 H   0  0  0  0  0  0  0  0  0  0  0  0
    3.3655   -2.0267   -1.4887 H   0  0  0  0  0  0  0  0  0  0  0  0
    1.8053   -2.8233   -1.3526 H   0  0  0  0  0  0  0  0  0  0  0  0
   -0.2966   -1.4934   -1.4077 H   0  0  0  0  0  0  0  0  0  0  0  0
    0.1212   -0.8369    0.1487 H   0  0  0  0  0  0  0  0  0  0  0  0
    0.2126    1.9428    0.3184 H   0  0  0  0  0  0  0  0  0  0  0  0
   -0.5086    0.7407   -2.3936 H   0  0  0  0  0  0  0  0  0  0  0  0
    2.6482   -4.2691    0.4016 H   0  0  0  0  0  0  0  0  0  0  0  0
    3.1918   -3.5640    1.9030 H   0  0  0  0  0  0  0  0  0  0  0  0
    5.1926   -4.3652    0.8970 H   0  0  0  0  0  0  0  0  0  0  0  0
    4.7366   -3.8089   -0.7173 H   0  0  0  0  0  0  0  0  0  0  0  0
    5.4918    0.8474    1.2760 H   0  0  0  0  0  0  0  0  0  0  0  0
   -2.3863    2.9448   -1.2133 H   0  0  0  0  0  0  0  0  0  0  0  0
   -1.5342    3.0943    0.3709 H   0  0  0  0  0  0  0  0  0  0  0  0
   -1.6364    4.4539   -0.7460 H   0  0  0  0  0  0  0  0  0  0  0  0
    7.9083   -3.7664   -0.0809 H   0  0  0  0  0  0  0  0  0  0  0  0
    8.2064    1.1054    0.9930 H   0  0  0  0  0  0  0  0  0  0  0  0
   10.1090   -2.6413   -0.0933 H   0  0  0  0  0  0  0  0  0  0  0  0
    4.2455    5.0253   -0.8786 H   0  0  0  0  0  0  0  0  0  0  0  0
    4.6945    4.0355    0.5572 H   0  0  0  0  0  0  0  0  0  0  0  0
    5.6413    3.9255   -0.9430 H   0  0  0  0  0  0  0  0  0  0  0  0
   -3.9935    0.6479    0.1906 H   0  0  0  0  0  0  0  0  0  0  0  0
   -5.1144   -0.6945   -2.3622 H   0  0  0  0  0  0  0  0  0  0  0  0
   10.0406    1.8766    0.0056 H   0  0  0  0  0  0  0  0  0  0  0  0
   10.2551    1.4752    1.7676 H   0  0  0  0  0  0  0  0  0  0  0  0
   11.6378    1.5918    0.6861 H   0  0  0  0  0  0  0  0  0  0  0  0
   -5.9803    1.3507    0.6839 H   0  0  0  0  0  0  0  0  0  0  0  0
   -7.2986   -1.7583   -2.0174 H   0  0  0  0  0  0  0  0  0  0  0  0
   -8.8859   -3.7297   -0.6011 H   0  0  0  0  0  0  0  0  0  0  0  0
  -10.0110   -3.0677    0.6298 H   0  0  0  0  0  0  0  0  0  0  0  0
  -10.6369   -3.7077   -0.9055 H   0  0  0  0  0  0  0  0  0  0  0  0
   -8.5864    0.1978    3.4849 H   0  0  0  0  0  0  0  0  0  0  0  0
   -6.9047    0.8126    3.3695 H   0  0  0  0  0  0  0  0  0  0  0  0
   -8.2061    1.8655    3.9673 H   0  0  0  0  0  0  0  0  0  0  0  0
  -12.1162    0.6642    1.0616 H   0  0  0  0  0  0  0  0  0  0  0  0
  -11.3960    0.5106   -0.5556 H   0  0  0  0  0  0  0  0  0  0  0  0
  -10.8366    1.7934    0.5665 H   0  0  0  0  0  0  0  0  0  0  0  0
  1 19  1  0  0  0  0
  1 28  1  0  0  0  0
  2 20  1  0  0  0  0
  2 30  1  0  0  0  0
  3 25  1  0  0  0  0
  3 34  1  0  0  0  0
  4 25  2  0  0  0  0
  5 30  2  0  0  0  0
  6 33  1  0  0  0  0
  6 37  1  0  0  0  0
  7 41  1  0  0  0  0
  7 44  1  0  0  0  0
  8 42  1  0  0  0  0
  8 45  1  0  0  0  0
  9 43  1  0  0  0  0
  9 46  1  0  0  0  0
 10 16  1  6  0  0  0
 10 17  1  0  0  0  0
 10 22  1  0  0  0  0
 11 21  1  0  0  0  0
 11 27  2  0  0  0  0
 11 63  1  0  0  0  0
 12 13  1  6  0  0  0
 12 14  1  0  0  0  0
 12 47  1  0  0  0  0
 13 17  1  0  0  0  0
 13 18  1  0  0  0  0
 13 48  1  6  0  0  0
 14 16  1  0  0  0  0
 14 49  1  0  0  0  0
 14 50  1  0  0  0  0
 15 12  1  1  0  0  0
 15 25  1  0  0  0  0
 15 51  1  0  0  0  0
 16 52  1  1  0  0  0
 17 53  1  0  0  0  0
 17 54  1  0  0  0  0
 18 20  1  0  0  0  0
 18 55  1  0  0  0  0
 18 56  1  0  0  0  0
 19 15  1  6  0  0  0
 19 57  1  0  0  0  0
 20 19  1  1  0  0  0
 20 58  1  0  0  0  0
 21 16  1  1  0  0  0
 21 23  1  0  0  0  0
 22 24  1  0  0  0  0
 22 59  1  0  0  0  0
 22 60  1  0  0  0  0
 23 24  1  0  0  0  0
 23 26  2  0  0  0  0
 24 61  1  0  0  0  0
 24 62  1  0  0  0  0
 26 27  1  0  0  0  0
 26 29  1  0  0  0  0
 27 31  1  0  0  0  0
 28 64  1  0  0  0  0
 28 65  1  0  0  0  0
 28 66  1  0  0  0  0
 29 32  2  0  0  0  0
 29 67  1  0  0  0  0
 30 35  1  0  0  0  0
 31 33  2  0  0  0  0
 31 68  1  0  0  0  0
 32 33  1  0  0  0  0
 32 69  1  0  0  0  0
 34 70  1  0  0  0  0
 34 71  1  0  0  0  0
 34 72  1  0  0  0  0
 35 36  2  0  0  0  0
 35 73  1  0  0  0  0
 36 38  1  0  0  0  0
 36 74  1  0  0  0  0
 37 75  1  0  0  0  0
 37 76  1  0  0  0  0
 37 77  1  0  0  0  0
 38 39  2  0  0  0  0
 38 40  1  0  0  0  0
 39 42  1  0  0  0  0
 39 78  1  0  0  0  0
 40 41  2  0  0  0  0
 40 79  1  0  0  0  0
 41 43  1  0  0  0  0
 42 43  2  0  0  0  0
 44 80  1  0  0  0  0
 44 81  1  0  0  0  0
 44 82  1  0  0  0  0
 45 83  1  0  0  0  0
 45 84  1  0  0  0  0
 45 85  1  0  0  0  0
 46 86  1  0  0  0  0
 46 87  1  0  0  0  0
 46 88  1  0  0  0  0
M  END
