DB01082
 OpenBabel07062211533D

 79 81  0  0  1  0  0  0  0  0999 V2000
    0.4640    0.6323    0.2225 O   0  0  0  0  0  0  0  0  0  0  0  0
    0.0052    2.8864   -0.3269 O   0  0  0  0  0  0  0  0  0  0  0  0
   -2.5813    0.4230   -0.3022 O   0  0  0  0  0  0  0  0  0  0  0  0
   -2.8685   -0.5354    1.8431 O   0  0  0  0  0  0  0  0  0  0  0  0
   -2.8613    2.9488   -1.3315 O   0  0  0  0  0  0  0  0  0  0  0  0
    2.4171    2.5272    1.1014 O   0  0  0  0  0  0  0  0  0  0  0  0
    3.9497   -2.0619   -1.6912 O   0  0  0  0  0  0  0  0  0  0  0  0
    5.0269    1.4229    1.4101 O   0  0  0  0  0  0  0  0  0  0  0  0
   -4.5055   -3.5758   -0.4271 O   0  0  0  0  0  0  0  0  0  0  0  0
   -1.9599   -3.9508    0.8079 O   0  0  0  0  0  0  0  0  0  0  0  0
   -4.5642    3.5218    0.6204 O   0  0  0  0  0  0  0  0  0  0  0  0
   -0.6234   -0.8262    3.3880 O   0  0  0  0  0  0  0  0  0  0  0  0
    1.2997   -0.9311   -2.0703 N   0  0  0  0  0  0  0  0  0  0  0  0
    5.9254   -0.1229   -0.8841 N   0  0  0  0  0  0  0  0  0  0  0  0
   -5.0373   -0.7649   -1.1704 N   0  0  0  0  0  0  0  0  0  0  0  0
    0.4264   -2.8696   -0.9525 N   0  0  0  0  0  0  0  0  0  0  0  0
   -0.2932   -2.2952   -3.0375 N   0  0  0  0  0  0  0  0  0  0  0  0
    6.9030   -0.6716    1.2405 N   0  0  0  0  0  0  0  0  0  0  0  0
    8.2107   -0.2609   -0.5805 N   0  0  0  0  0  0  0  0  0  0  0  0
   -1.7896    1.4586    0.2498 C   0  0  2  0  0  0  0  0  0  0  0  0
    1.7754    0.7106   -0.3437 C   0  0  2  0  0  0  0  0  0  0  0  0
   -2.3483    2.8434   -0.0174 C   0  0  1  0  0  0  0  0  0  0  0  0
   -0.4307    1.5225   -0.4284 C   0  0  2  0  0  0  0  0  0  0  0  0
    2.1598   -0.6592   -0.9050 C   0  0  2  0  0  0  0  0  0  0  0  0
    2.7468    1.1823    0.7396 C   0  0  1  0  0  0  0  0  0  0  0  0
    3.6175   -0.7084   -1.3706 C   0  0  1  0  0  0  0  0  0  0  0  0
   -1.0903    3.6939    0.1525 C   0  0  2  0  0  0  0  0  0  0  0  0
    4.2030    1.1383    0.2763 C   0  0  2  0  0  0  0  0  0  0  0  0
    4.5840   -0.2329   -0.2837 C   0  0  2  0  0  0  0  0  0  0  0  0
   -3.5145   -0.0914    0.6462 C   0  0  2  0  0  0  0  0  0  0  0  0
   -4.4048   -1.2042    0.0735 C   0  0  2  0  0  0  0  0  0  0  0  0
   -3.6097   -2.4986   -0.1439 C   0  0  1  0  0  0  0  0  0  0  0  0
   -2.8296   -2.8655    1.1237 C   0  0  2  0  0  0  0  0  0  0  0  0
   -2.0212   -1.6710    1.6442 C   0  0  2  0  0  0  0  0  0  0  0  0
   -1.0870    5.0162   -0.5976 C   0  0  0  0  0  0  0  0  0  0  0  0
   -3.4172    3.2429    0.9542 C   0  0  0  0  0  0  0  0  0  0  0  0
   -1.3547   -1.9694    2.9845 C   0  0  0  0  0  0  0  0  0  0  0  0
    0.5392   -1.9729   -1.9917 C   0  0  0  0  0  0  0  0  0  0  0  0
   -5.7810    0.4674   -0.9621 C   0  0  0  0  0  0  0  0  0  0  0  0
    6.9262   -0.3439   -0.0969 C   0  0  0  0  0  0  0  0  0  0  0  0
   -1.6225    1.3196    1.3263 H   0  0  0  0  0  0  0  0  0  0  0  0
    1.7989    1.4373   -1.1696 H   0  0  0  0  0  0  0  0  0  0  0  0
   -0.5085    1.2538   -1.4897 H   0  0  0  0  0  0  0  0  0  0  0  0
    2.0527   -1.3819   -0.0941 H   0  0  0  0  0  0  0  0  0  0  0  0
    2.6097    0.5881    1.6514 H   0  0  0  0  0  0  0  0  0  0  0  0
    3.7522   -0.1129   -2.2830 H   0  0  0  0  0  0  0  0  0  0  0  0
   -0.8902    3.8873    1.2142 H   0  0  0  0  0  0  0  0  0  0  0  0
    4.3958    1.9296   -0.4582 H   0  0  0  0  0  0  0  0  0  0  0  0
    4.5659   -0.9927    0.5075 H   0  0  0  0  0  0  0  0  0  0  0  0
   -4.1569    0.7281    0.9799 H   0  0  0  0  0  0  0  0  0  0  0  0
   -5.1919   -1.4338    0.8068 H   0  0  0  0  0  0  0  0  0  0  0  0
   -2.9204   -2.4114   -0.9934 H   0  0  0  0  0  0  0  0  0  0  0  0
   -3.5363   -3.2164    1.8868 H   0  0  0  0  0  0  0  0  0  0  0  0
   -1.2345   -1.4051    0.9288 H   0  0  0  0  0  0  0  0  0  0  0  0
   -0.1541    5.5564   -0.4022 H   0  0  0  0  0  0  0  0  0  0  0  0
   -1.1297    4.8626   -1.6811 H   0  0  0  0  0  0  0  0  0  0  0  0
   -1.9255    5.6492   -0.2932 H   0  0  0  0  0  0  0  0  0  0  0  0
   -3.1261    3.2605    2.0187 H   0  0  0  0  0  0  0  0  0  0  0  0
   -3.3947    2.1593   -1.5158 H   0  0  0  0  0  0  0  0  0  0  0  0
    2.5063    3.0815    0.3074 H   0  0  0  0  0  0  0  0  0  0  0  0
   -5.6773   -1.4886   -1.4956 H   0  0  0  0  0  0  0  0  0  0  0  0
    3.3462   -2.3497   -2.3971 H   0  0  0  0  0  0  0  0  0  0  0  0
    4.7823    0.8104    2.1243 H   0  0  0  0  0  0  0  0  0  0  0  0
   -2.1017   -2.1703    3.7589 H   0  0  0  0  0  0  0  0  0  0  0  0
   -0.6668   -2.8175    2.9283 H   0  0  0  0  0  0  0  0  0  0  0  0
   -4.9300   -3.3865   -1.2805 H   0  0  0  0  0  0  0  0  0  0  0  0
   -1.6128   -4.3063    1.6429 H   0  0  0  0  0  0  0  0  0  0  0  0
   -6.3953    0.6567   -1.8494 H   0  0  0  0  0  0  0  0  0  0  0  0
   -5.1446    1.3432   -0.8513 H   0  0  0  0  0  0  0  0  0  0  0  0
   -6.4657    0.3987   -0.1099 H   0  0  0  0  0  0  0  0  0  0  0  0
    0.0552   -0.6549    2.7127 H   0  0  0  0  0  0  0  0  0  0  0  0
   -0.2260   -3.6441   -1.0236 H   0  0  0  0  0  0  0  0  0  0  0  0
    0.9415   -2.8219   -0.0838 H   0  0  0  0  0  0  0  0  0  0  0  0
   -0.3235   -1.7264   -3.8767 H   0  0  0  0  0  0  0  0  0  0  0  0
   -0.9041   -3.1037   -2.9999 H   0  0  0  0  0  0  0  0  0  0  0  0
    6.0519   -0.7761    1.7779 H   0  0  0  0  0  0  0  0  0  0  0  0
    7.7691   -0.8201    1.7479 H   0  0  0  0  0  0  0  0  0  0  0  0
    9.0139   -0.4288    0.0153 H   0  0  0  0  0  0  0  0  0  0  0  0
    8.3906   -0.0272   -1.5510 H   0  0  0  0  0  0  0  0  0  0  0  0
  1 21  1  0  0  0  0
  1 23  1  0  0  0  0
  2 23  1  0  0  0  0
  2 27  1  0  0  0  0
  3 20  1  0  0  0  0
  3 30  1  0  0  0  0
  4 30  1  0  0  0  0
  4 34  1  0  0  0  0
  5 22  1  0  0  0  0
  5 59  1  0  0  0  0
  6 25  1  0  0  0  0
  6 60  1  0  0  0  0
  7 26  1  0  0  0  0
  7 62  1  0  0  0  0
  8 28  1  0  0  0  0
  8 63  1  0  0  0  0
  9 32  1  0  0  0  0
  9 66  1  0  0  0  0
 10 33  1  0  0  0  0
 10 67  1  0  0  0  0
 11 36  2  0  0  0  0
 12 37  1  0  0  0  0
 12 71  1  0  0  0  0
 13 24  1  0  0  0  0
 13 38  2  0  0  0  0
 14 29  1  0  0  0  0
 14 40  2  0  0  0  0
 15 31  1  0  0  0  0
 15 39  1  0  0  0  0
 15 61  1  0  0  0  0
 16 38  1  0  0  0  0
 16 72  1  0  0  0  0
 16 73  1  0  0  0  0
 17 38  1  0  0  0  0
 17 74  1  0  0  0  0
 17 75  1  0  0  0  0
 18 40  1  0  0  0  0
 18 76  1  0  0  0  0
 18 77  1  0  0  0  0
 19 40  1  0  0  0  0
 19 78  1  0  0  0  0
 19 79  1  0  0  0  0
 20 22  1  6  0  0  0
 20 41  1  0  0  0  0
 21 24  1  6  0  0  0
 21 42  1  0  0  0  0
 22 27  1  1  0  0  0
 22 36  1  0  0  0  0
 23 20  1  1  0  0  0
 23 43  1  0  0  0  0
 24 26  1  6  0  0  0
 24 44  1  0  0  0  0
 25 21  1  6  0  0  0
 25 45  1  0  0  0  0
 26 29  1  1  0  0  0
 26 46  1  0  0  0  0
 27 35  1  0  0  0  0
 27 47  1  1  0  0  0
 28 25  1  1  0  0  0
 28 48  1  0  0  0  0
 29 28  1  1  0  0  0
 29 49  1  0  0  0  0
 30 31  1  6  0  0  0
 30 50  1  0  0  0  0
 31 32  1  6  0  0  0
 31 51  1  0  0  0  0
 32 33  1  1  0  0  0
 32 52  1  0  0  0  0
 33 34  1  1  0  0  0
 33 53  1  0  0  0  0
 34 37  1  0  0  0  0
 34 54  1  6  0  0  0
 35 55  1  0  0  0  0
 35 56  1  0  0  0  0
 35 57  1  0  0  0  0
 36 58  1  0  0  0  0
 37 64  1  0  0  0  0
 37 65  1  0  0  0  0
 39 68  1  0  0  0  0
 39 69  1  0  0  0  0
 39 70  1  0  0  0  0
M  END
