DB01599
 OpenBabel07062211533D

 83 84  0  0  0  0  0  0  0  0999 V2000
   -0.4928    1.4634    0.4225 S   0  0  0  0  0  0  0  0  0  0  0  0
    1.4711    1.6549    2.7202 S   0  0  0  0  0  0  0  0  0  0  0  0
   -5.7224   -1.0844   -0.7598 O   0  0  0  0  0  0  0  0  0  0  0  0
    5.5574   -0.0815   -1.2199 O   0  0  0  0  0  0  0  0  0  0  0  0
   -5.7357    1.4422    0.5428 C   0  0  0  0  0  0  0  0  0  0  0  0
    4.1123    2.3053   -1.7635 C   0  0  0  0  0  0  0  0  0  0  0  0
   -3.3619   -2.4676   -1.5315 C   0  0  0  0  0  0  0  0  0  0  0  0
    5.1683   -1.6890    1.0921 C   0  0  0  0  0  0  0  0  0  0  0  0
   -4.4773    0.7406    0.1499 C   0  0  0  0  0  0  0  0  0  0  0  0
    3.8775    1.4576   -0.5023 C   0  0  0  0  0  0  0  0  0  0  0  0
   -3.3354   -1.1401   -0.8479 C   0  0  0  0  0  0  0  0  0  0  0  0
    4.3922   -0.4394    0.8351 C   0  0  0  0  0  0  0  0  0  0  0  0
   -4.5207   -0.4990   -0.4879 C   0  0  0  0  0  0  0  0  0  0  0  0
    4.6183    0.3174   -0.3146 C   0  0  0  0  0  0  0  0  0  0  0  0
   -3.2485    1.3392    0.4279 C   0  0  0  0  0  0  0  0  0  0  0  0
    2.9239    1.8900    0.3873 C   0  0  0  0  0  0  0  0  0  0  0  0
   -2.1064   -0.5416   -0.5699 C   0  0  0  0  0  0  0  0  0  0  0  0
    3.4318   -0.0314    1.7608 C   0  0  0  0  0  0  0  0  0  0  0  0
   -2.0644    0.6975    0.0676 C   0  0  0  0  0  0  0  0  0  0  0  0
    2.6978    1.1332    1.5368 C   0  0  0  0  0  0  0  0  0  0  0  0
   -0.0876    0.8115    2.1162 C   0  0  0  0  0  0  0  0  0  0  0  0
   -5.4284    2.8044    1.2369 C   0  0  0  0  0  0  0  0  0  0  0  0
   -6.7077    1.7829   -0.6343 C   0  0  0  0  0  0  0  0  0  0  0  0
   -6.5730    0.5830    1.5392 C   0  0  0  0  0  0  0  0  0  0  0  0
    5.5550    2.8438   -1.8951 C   0  0  0  0  0  0  0  0  0  0  0  0
    3.8264    1.4561   -3.0211 C   0  0  0  0  0  0  0  0  0  0  0  0
    3.1688    3.5275   -1.7510 C   0  0  0  0  0  0  0  0  0  0  0  0
   -4.1241   -2.3875   -2.8897 C   0  0  0  0  0  0  0  0  0  0  0  0
   -1.9183   -2.9769   -1.8299 C   0  0  0  0  0  0  0  0  0  0  0  0
   -4.0542   -3.6191   -0.7311 C   0  0  0  0  0  0  0  0  0  0  0  0
    5.6365   -2.4609   -0.1849 C   0  0  0  0  0  0  0  0  0  0  0  0
    6.4693   -1.3893    1.8981 C   0  0  0  0  0  0  0  0  0  0  0  0
    4.3293   -2.7145    1.9148 C   0  0  0  0  0  0  0  0  0  0  0  0
    0.0781   -0.7114    2.1396 C   0  0  0  0  0  0  0  0  0  0  0  0
   -1.1852    1.2295    3.1068 C   0  0  0  0  0  0  0  0  0  0  0  0
   -3.1494    2.3025    0.9139 H   0  0  0  0  0  0  0  0  0  0  0  0
    2.3381    2.7927    0.2812 H   0  0  0  0  0  0  0  0  0  0  0  0
   -1.1525   -0.9876   -0.8254 H   0  0  0  0  0  0  0  0  0  0  0  0
    3.2491   -0.5773    2.6800 H   0  0  0  0  0  0  0  0  0  0  0  0
   -4.9128    3.5047    0.5688 H   0  0  0  0  0  0  0  0  0  0  0  0
   -6.3612    3.3003    1.5358 H   0  0  0  0  0  0  0  0  0  0  0  0
   -4.8509    2.6788    2.1609 H   0  0  0  0  0  0  0  0  0  0  0  0
   -7.5273    2.4286   -0.2970 H   0  0  0  0  0  0  0  0  0  0  0  0
   -6.1727    2.3103   -1.4324 H   0  0  0  0  0  0  0  0  0  0  0  0
   -7.1731    0.8982   -1.0748 H   0  0  0  0  0  0  0  0  0  0  0  0
   -5.9597    0.2744    2.3943 H   0  0  0  0  0  0  0  0  0  0  0  0
   -7.4195    1.1582    1.9337 H   0  0  0  0  0  0  0  0  0  0  0  0
   -6.9923   -0.3211    1.0898 H   0  0  0  0  0  0  0  0  0  0  0  0
    6.2988    2.0561   -2.0421 H   0  0  0  0  0  0  0  0  0  0  0  0
    5.6456    3.5248   -2.7499 H   0  0  0  0  0  0  0  0  0  0  0  0
    5.8439    3.4000   -0.9955 H   0  0  0  0  0  0  0  0  0  0  0  0
    4.5640    0.6703   -3.2040 H   0  0  0  0  0  0  0  0  0  0  0  0
    3.8225    2.0866   -3.9188 H   0  0  0  0  0  0  0  0  0  0  0  0
    2.8414    0.9781   -2.9576 H   0  0  0  0  0  0  0  0  0  0  0  0
    3.3648    4.2074   -0.9130 H   0  0  0  0  0  0  0  0  0  0  0  0
    2.1090    3.2456   -1.7700 H   0  0  0  0  0  0  0  0  0  0  0  0
    3.3233    4.1272   -2.6582 H   0  0  0  0  0  0  0  0  0  0  0  0
   -5.2065   -2.2891   -2.7779 H   0  0  0  0  0  0  0  0  0  0  0  0
   -3.9604   -3.2972   -3.4804 H   0  0  0  0  0  0  0  0  0  0  0  0
   -3.7678   -1.5410   -3.4885 H   0  0  0  0  0  0  0  0  0  0  0  0
   -1.3358   -3.1369   -0.9144 H   0  0  0  0  0  0  0  0  0  0  0  0
   -1.3729   -2.3063   -2.5049 H   0  0  0  0  0  0  0  0  0  0  0  0
   -1.9539   -3.9484   -2.3401 H   0  0  0  0  0  0  0  0  0  0  0  0
   -3.9755   -4.5759   -1.2605 H   0  0  0  0  0  0  0  0  0  0  0  0
   -5.1182   -3.4329   -0.5594 H   0  0  0  0  0  0  0  0  0  0  0  0
   -3.5819   -3.7379    0.2512 H   0  0  0  0  0  0  0  0  0  0  0  0
    6.5366   -2.0447   -0.6467 H   0  0  0  0  0  0  0  0  0  0  0  0
    4.8356   -2.5335   -0.9299 H   0  0  0  0  0  0  0  0  0  0  0  0
    5.9195   -3.4909    0.0691 H   0  0  0  0  0  0  0  0  0  0  0  0
    7.1274   -0.7036    1.3527 H   0  0  0  0  0  0  0  0  0  0  0  0
    7.0314   -2.3075    2.1028 H   0  0  0  0  0  0  0  0  0  0  0  0
    6.2344   -0.9191    2.8603 H   0  0  0  0  0  0  0  0  0  0  0  0
    3.3544   -2.9008    1.4488 H   0  0  0  0  0  0  0  0  0  0  0  0
    4.1699   -2.3965    2.9508 H   0  0  0  0  0  0  0  0  0  0  0  0
    4.8453   -3.6800    1.9866 H   0  0  0  0  0  0  0  0  0  0  0  0
    0.4515   -1.0573    3.1109 H   0  0  0  0  0  0  0  0  0  0  0  0
   -0.8786   -1.2215    1.9801 H   0  0  0  0  0  0  0  0  0  0  0  0
    0.7667   -1.0689    1.3670 H   0  0  0  0  0  0  0  0  0  0  0  0
   -1.3802    2.3087    3.0852 H   0  0  0  0  0  0  0  0  0  0  0  0
   -2.1310    0.7124    2.9130 H   0  0  0  0  0  0  0  0  0  0  0  0
   -0.9111    0.9653    4.1364 H   0  0  0  0  0  0  0  0  0  0  0  0
   -6.0187   -0.7180   -1.6108 H   0  0  0  0  0  0  0  0  0  0  0  0
    6.4210    0.0163   -0.7811 H   0  0  0  0  0  0  0  0  0  0  0  0
  1 19  1  0  0  0  0
  1 21  1  0  0  0  0
  2 20  1  0  0  0  0
  2 21  1  0  0  0  0
  3 13  1  0  0  0  0
  3 82  1  0  0  0  0
  4 14  1  0  0  0  0
  4 83  1  0  0  0  0
  5  9  1  0  0  0  0
  5 22  1  0  0  0  0
  5 23  1  0  0  0  0
  5 24  1  0  0  0  0
  6 10  1  0  0  0  0
  6 25  1  0  0  0  0
  6 26  1  0  0  0  0
  6 27  1  0  0  0  0
  7 11  1  0  0  0  0
  7 28  1  0  0  0  0
  7 29  1  0  0  0  0
  7 30  1  0  0  0  0
  8 12  1  0  0  0  0
  8 31  1  0  0  0  0
  8 32  1  0  0  0  0
  8 33  1  0  0  0  0
  9 13  2  0  0  0  0
  9 15  1  0  0  0  0
 10 14  2  0  0  0  0
 10 16  1  0  0  0  0
 11 13  1  0  0  0  0
 11 17  2  0  0  0  0
 12 14  1  0  0  0  0
 12 18  2  0  0  0  0
 15 19  2  0  0  0  0
 15 36  1  0  0  0  0
 16 20  2  0  0  0  0
 16 37  1  0  0  0  0
 17 19  1  0  0  0  0
 17 38  1  0  0  0  0
 18 20  1  0  0  0  0
 18 39  1  0  0  0  0
 21 34  1  0  0  0  0
 21 35  1  0  0  0  0
 22 40  1  0  0  0  0
 22 41  1  0  0  0  0
 22 42  1  0  0  0  0
 23 43  1  0  0  0  0
 23 44  1  0  0  0  0
 23 45  1  0  0  0  0
 24 46  1  0  0  0  0
 24 47  1  0  0  0  0
 24 48  1  0  0  0  0
 25 49  1  0  0  0  0
 25 50  1  0  0  0  0
 25 51  1  0  0  0  0
 26 52  1  0  0  0  0
 26 53  1  0  0  0  0
 26 54  1  0  0  0  0
 27 55  1  0  0  0  0
 27 56  1  0  0  0  0
 27 57  1  0  0  0  0
 28 58  1  0  0  0  0
 28 59  1  0  0  0  0
 28 60  1  0  0  0  0
 29 61  1  0  0  0  0
 29 62  1  0  0  0  0
 29 63  1  0  0  0  0
 30 64  1  0  0  0  0
 30 65  1  0  0  0  0
 30 66  1  0  0  0  0
 31 67  1  0  0  0  0
 31 68  1  0  0  0  0
 31 69  1  0  0  0  0
 32 70  1  0  0  0  0
 32 71  1  0  0  0  0
 32 72  1  0  0  0  0
 33 73  1  0  0  0  0
 33 74  1  0  0  0  0
 33 75  1  0  0  0  0
 34 76  1  0  0  0  0
 34 77  1  0  0  0  0
 34 78  1  0  0  0  0
 35 79  1  0  0  0  0
 35 80  1  0  0  0  0
 35 81  1  0  0  0  0
M  END
