DB01416
 OpenBabel07062211533D

 45 47  0  0  1  0  0  0  0  0999 V2000
   -0.9317   -0.9014    1.6518 S   0  0  0  0  0  0  0  0  0  0  0  0
    3.3391    3.6434   -0.6379 S   0  0  0  0  0  0  0  0  0  0  0  0
   -0.2937   -0.6188   -2.9445 O   0  0  0  0  0  0  0  0  0  0  0  0
   -5.5314   -0.1097    1.1239 O   0  0  0  0  0  0  0  0  0  0  0  0
   -4.0228   -0.1808   -2.6523 O   0  0  0  0  0  0  0  0  0  0  0  0
   -2.7678    1.7084   -2.3586 O   0  0  0  0  0  0  0  0  0  0  0  0
    2.7577   -1.2562   -2.2055 O   0  0  0  0  0  0  0  0  0  0  0  0
    4.3500   -2.3281    0.2374 O   0  0  0  0  0  0  0  0  0  0  0  0
   -1.5139   -0.8286   -0.9376 N   0  0  0  0  0  0  0  0  0  0  0  0
    1.4571   -1.1822   -0.2529 N   0  0  0  0  0  0  0  0  0  0  0  0
    4.5784   -0.9495    0.3493 N   0  0  0  0  0  0  0  0  0  0  0  0
    4.8025    1.7935    0.4198 N   0  0  0  0  0  0  0  0  0  0  0  0
    5.5138    4.0072    0.8488 N   0  0  0  0  0  0  0  0  0  0  0  0
   -1.0427   -1.7639    0.0674 C   0  0  1  0  0  0  0  0  0  0  0  0
    0.2584   -1.8492   -0.7604 C   0  0  1  0  0  0  0  0  0  0  0  0
   -0.5126   -1.0171   -1.8244 C   0  0  0  0  0  0  0  0  0  0  0  0
   -2.6471   -0.0913   -0.8103 C   0  0  0  0  0  0  0  0  0  0  0  0
   -3.2700    0.0477    0.3842 C   0  0  0  0  0  0  0  0  0  0  0  0
   -2.7143   -0.5128    1.6916 C   0  0  0  0  0  0  0  0  0  0  0  0
   -4.5738    0.7805    0.5909 C   0  0  0  0  0  0  0  0  0  0  0  0
   -3.1306    0.6017   -2.0137 C   0  0  0  0  0  0  0  0  0  0  0  0
    2.5767   -0.9598   -1.0355 C   0  0  0  0  0  0  0  0  0  0  0  0
    3.6847   -0.2591   -0.2926 C   0  0  0  0  0  0  0  0  0  0  0  0
    3.7797    1.2041   -0.2676 C   0  0  0  0  0  0  0  0  0  0  0  0
   -6.7865    0.5281    1.3411 C   0  0  0  0  0  0  0  0  0  0  0  0
    2.8860    2.0110   -0.9048 C   0  0  0  0  0  0  0  0  0  0  0  0
    4.6717    3.0955    0.2941 C   0  0  0  0  0  0  0  0  0  0  0  0
    5.3655   -3.0034    0.9632 C   0  0  0  0  0  0  0  0  0  0  0  0
   -1.6192   -2.6964    0.0861 H   0  0  0  0  0  0  0  0  0  0  0  0
    0.4848   -2.8672   -1.0991 H   0  0  0  0  0  0  0  0  0  0  0  0
   -3.2647   -1.4192    1.9663 H   0  0  0  0  0  0  0  0  0  0  0  0
   -2.8489    0.2179    2.4963 H   0  0  0  0  0  0  0  0  0  0  0  0
    1.4849   -0.8664    0.7138 H   0  0  0  0  0  0  0  0  0  0  0  0
   -4.4121    1.6144    1.2855 H   0  0  0  0  0  0  0  0  0  0  0  0
   -4.9586    1.2035   -0.3428 H   0  0  0  0  0  0  0  0  0  0  0  0
   -4.3732    0.2449   -3.4636 H   0  0  0  0  0  0  0  0  0  0  0  0
   -7.4778   -0.2085    1.7592 H   0  0  0  0  0  0  0  0  0  0  0  0
   -7.1968    0.8965    0.3960 H   0  0  0  0  0  0  0  0  0  0  0  0
   -6.6788    1.3516    2.0535 H   0  0  0  0  0  0  0  0  0  0  0  0
    2.0161    1.7622   -1.4961 H   0  0  0  0  0  0  0  0  0  0  0  0
    6.3132    3.7260    1.4070 H   0  0  0  0  0  0  0  0  0  0  0  0
    5.3764    5.0051    0.7273 H   0  0  0  0  0  0  0  0  0  0  0  0
    5.3289   -2.7223    2.0202 H   0  0  0  0  0  0  0  0  0  0  0  0
    5.1933   -4.0797    0.8801 H   0  0  0  0  0  0  0  0  0  0  0  0
    6.3501   -2.7718    0.5453 H   0  0  0  0  0  0  0  0  0  0  0  0
  1 14  1  0  0  0  0
  1 19  1  0  0  0  0
  2 26  1  0  0  0  0
  2 27  1  0  0  0  0
  3 16  2  0  0  0  0
  4 20  1  0  0  0  0
  4 25  1  0  0  0  0
  5 21  1  0  0  0  0
  5 36  1  0  0  0  0
  6 21  2  0  0  0  0
  7 22  2  0  0  0  0
  8 11  1  0  0  0  0
  8 28  1  0  0  0  0
  9 14  1  0  0  0  0
  9 16  1  0  0  0  0
  9 17  1  0  0  0  0
 10 15  1  0  0  0  0
 10 22  1  0  0  0  0
 10 33  1  0  0  0  0
 11 23  2  0  0  0  0
 12 24  1  0  0  0  0
 12 27  2  0  0  0  0
 13 27  1  0  0  0  0
 13 41  1  0  0  0  0
 13 42  1  0  0  0  0
 14 15  1  6  0  0  0
 14 29  1  0  0  0  0
 15 16  1  0  0  0  0
 15 30  1  6  0  0  0
 17 18  2  0  0  0  0
 17 21  1  0  0  0  0
 18 19  1  0  0  0  0
 18 20  1  0  0  0  0
 19 31  1  0  0  0  0
 19 32  1  0  0  0  0
 20 34  1  0  0  0  0
 20 35  1  0  0  0  0
 22 23  1  0  0  0  0
 23 24  1  0  0  0  0
 24 26  2  0  0  0  0
 25 37  1  0  0  0  0
 25 38  1  0  0  0  0
 25 39  1  0  0  0  0
 26 40  1  0  0  0  0
 28 43  1  0  0  0  0
 28 44  1  0  0  0  0
 28 45  1  0  0  0  0
M  END
