DB01015
 OpenBabel07062211533D

 28 29  0  0  0  0  0  0  0  0999 V2000
    0.3653    2.6889    0.5449 S   0  0  0  0  0  0  0  0  0  0  0  0
   -2.6084   -0.4652    1.2487 O   0  0  0  0  0  0  0  0  0  0  0  0
    1.0453    3.7463   -0.1938 O   0  0  0  0  0  0  0  0  0  0  0  0
    0.1175    2.8750    1.9694 O   0  0  0  0  0  0  0  0  0  0  0  0
   -1.1196    2.3453   -0.2585 N   0  0  0  0  0  0  0  0  0  0  0  0
   -1.8537    0.6984    1.3352 N   0  0  0  0  0  0  0  0  0  0  0  0
    3.4653   -2.3290   -0.2088 N   0  0  0  0  0  0  0  0  0  0  0  0
    1.2753    1.2154    0.3236 C   0  0  0  0  0  0  0  0  0  0  0  0
    2.0950    1.0633   -0.7948 C   0  0  0  0  0  0  0  0  0  0  0  0
    1.1829    0.1903    1.2650 C   0  0  0  0  0  0  0  0  0  0  0  0
   -1.8165    1.1378    0.0947 C   0  0  0  0  0  0  0  0  0  0  0  0
    2.7294   -1.1389   -0.0306 C   0  0  0  0  0  0  0  0  0  0  0  0
    2.8219   -0.1139   -0.9718 C   0  0  0  0  0  0  0  0  0  0  0  0
    1.9099   -0.9869    1.0879 C   0  0  0  0  0  0  0  0  0  0  0  0
   -2.4940    0.3515   -0.8227 C   0  0  0  0  0  0  0  0  0  0  0  0
   -2.9839   -0.6611   -0.0411 C   0  0  0  0  0  0  0  0  0  0  0  0
   -3.7942   -1.8541   -0.3148 C   0  0  0  0  0  0  0  0  0  0  0  0
   -1.1964    2.6410   -1.2404 H   0  0  0  0  0  0  0  0  0  0  0  0
    2.1769    1.8449   -1.5447 H   0  0  0  0  0  0  0  0  0  0  0  0
    0.5807    0.2916    2.1624 H   0  0  0  0  0  0  0  0  0  0  0  0
    3.4559   -0.2211   -1.8484 H   0  0  0  0  0  0  0  0  0  0  0  0
    1.8351   -1.7757    1.8321 H   0  0  0  0  0  0  0  0  0  0  0  0
   -2.6194    0.4799   -1.8876 H   0  0  0  0  0  0  0  0  0  0  0  0
   -4.0480   -1.9243   -1.3771 H   0  0  0  0  0  0  0  0  0  0  0  0
   -3.2495   -2.7615   -0.0361 H   0  0  0  0  0  0  0  0  0  0  0  0
   -4.7278   -1.8244    0.2552 H   0  0  0  0  0  0  0  0  0  0  0  0
    4.0583   -2.4407   -1.0204 H   0  0  0  0  0  0  0  0  0  0  0  0
    3.3971   -3.0731    0.4726 H   0  0  0  0  0  0  0  0  0  0  0  0
  1  3  2  0  0  0  0
  1  4  2  0  0  0  0
  1  5  1  0  0  0  0
  1  8  1  0  0  0  0
  2  6  1  0  0  0  0
  2 16  1  0  0  0  0
  5 11  1  0  0  0  0
  5 18  1  0  0  0  0
  6 11  2  0  0  0  0
  7 12  1  0  0  0  0
  7 27  1  0  0  0  0
  7 28  1  0  0  0  0
  8  9  2  0  0  0  0
  8 10  1  0  0  0  0
  9 13  1  0  0  0  0
  9 19  1  0  0  0  0
 10 14  2  0  0  0  0
 10 20  1  0  0  0  0
 11 15  1  0  0  0  0
 12 13  2  0  0  0  0
 12 14  1  0  0  0  0
 13 21  1  0  0  0  0
 14 22  1  0  0  0  0
 15 16  2  0  0  0  0
 15 23  1  0  0  0  0
 16 17  1  0  0  0  0
 17 24  1  0  0  0  0
 17 25  1  0  0  0  0
 17 26  1  0  0  0  0
M  END
