DB01987
 OpenBabel07062211533D

 44 45  0  0  0  0  0  0  0  0999 V2000
    1.6959    1.9941    2.1074 S   0  0  0  0  0  0  0  0  0  0  0  0
    2.9622   -2.4015   -0.9620 P   0  0  1  0  0  0  0  0  0  0  0  0
    0.9758   -2.5482    1.2252 P   0  0  0  0  0  0  0  0  0  0  0  0
    2.9020   -0.7752   -0.7958 O   0  0  0  0  0  0  0  0  0  0  0  0
    2.3882   -2.8458    0.5007 O   0  0  0  0  0  0  0  0  0  0  0  0
    1.9552   -2.8072   -2.0161 O   0  0  0  0  0  0  0  0  0  0  0  0
    4.4061   -2.8431   -1.0657 O   0  0  0  0  0  0  0  0  0  0  0  0
    1.0509   -3.4397    2.5724 O   0  0  0  0  0  0  0  0  0  0  0  0
   -0.0965   -3.3512    0.3197 O   0  0  0  0  0  0  0  0  0  0  0  0
    0.6487   -1.1017    1.4507 O   0  0  0  0  0  0  0  0  0  0  0  0
   -0.0699    2.2461    0.3463 N   0  0  0  0  0  0  0  0  0  0  0  0
   -3.6662   -0.3788    0.5455 N   0  0  0  0  0  0  0  0  0  0  0  0
   -2.6632   -0.7663   -1.6111 N   0  0  0  0  0  0  0  0  0  0  0  0
   -3.1297    1.5742    1.7793 N   0  0  0  0  0  0  0  0  0  0  0  0
    1.0667    1.9089   -0.3541 C   0  0  0  0  0  0  0  0  0  0  0  0
    2.1201    1.7385    0.4777 C   0  0  0  0  0  0  0  0  0  0  0  0
   -1.3481    2.4902   -0.2786 C   0  0  0  0  0  0  0  0  0  0  0  0
    3.5444    1.3678    0.1382 C   0  0  0  0  0  0  0  0  0  0  0  0
    0.0831    2.3343    1.6500 C   0  0  0  0  0  0  0  0  0  0  0  0
   -2.1220    1.2033   -0.3664 C   0  0  0  0  0  0  0  0  0  0  0  0
    0.9764    1.7919   -1.8170 C   0  0  0  0  0  0  0  0  0  0  0  0
    3.7588   -0.1434    0.1409 C   0  0  0  0  0  0  0  0  0  0  0  0
   -2.9699    0.7746    0.6207 C   0  0  0  0  0  0  0  0  0  0  0  0
   -1.9977    0.3988   -1.4697 C   0  0  0  0  0  0  0  0  0  0  0  0
   -3.4683   -1.0895   -0.5812 C   0  0  0  0  0  0  0  0  0  0  0  0
   -4.2210   -2.3711   -0.7009 C   0  0  0  0  0  0  0  0  0  0  0  0
   -1.8886    3.2563    0.2894 H   0  0  0  0  0  0  0  0  0  0  0  0
   -1.2576    2.9540   -1.2637 H   0  0  0  0  0  0  0  0  0  0  0  0
    3.7858    1.7651   -0.8549 H   0  0  0  0  0  0  0  0  0  0  0  0
    4.2423    1.8393    0.8405 H   0  0  0  0  0  0  0  0  0  0  0  0
   -0.6944    2.6026    2.3499 H   0  0  0  0  0  0  0  0  0  0  0  0
    3.5699   -0.5571    1.1371 H   0  0  0  0  0  0  0  0  0  0  0  0
    4.7981   -0.3603   -0.1265 H   0  0  0  0  0  0  0  0  0  0  0  0
    0.6944    0.7777   -2.1075 H   0  0  0  0  0  0  0  0  0  0  0  0
    0.3358    2.5236   -2.3081 H   0  0  0  0  0  0  0  0  0  0  0  0
    1.9656    1.9570   -2.2612 H   0  0  0  0  0  0  0  0  0  0  0  0
   -1.4058    0.6710   -2.3327 H   0  0  0  0  0  0  0  0  0  0  0  0
   -3.7423    1.1934    2.4915 H   0  0  0  0  0  0  0  0  0  0  0  0
   -3.1303    2.5809    1.6835 H   0  0  0  0  0  0  0  0  0  0  0  0
   -5.0545   -2.4076    0.0076 H   0  0  0  0  0  0  0  0  0  0  0  0
   -4.6279   -2.4822   -1.7107 H   0  0  0  0  0  0  0  0  0  0  0  0
   -3.5524   -3.2126   -0.4958 H   0  0  0  0  0  0  0  0  0  0  0  0
    1.5720   -3.1060    3.3336 H   0  0  0  0  0  0  0  0  0  0  0  0
   -0.3921   -2.9553   -0.5279 H   0  0  0  0  0  0  0  0  0  0  0  0
  1 16  1  0  0  0  0
  1 19  1  0  0  0  0
  2  4  1  0  0  0  0
  2  5  1  0  0  0  0
  2  6  1  6  0  0  0
  2  7  2  0  0  0  0
  3  5  1  0  0  0  0
  3  8  1  0  0  0  0
  3  9  1  0  0  0  0
  3 10  2  0  0  0  0
  4 22  1  0  0  0  0
  8 43  1  0  0  0  0
  9 44  1  0  0  0  0
 11 15  1  0  0  0  0
 11 17  1  0  0  0  0
 11 19  2  0  0  0  0
 12 23  2  0  0  0  0
 12 25  1  0  0  0  0
 13 24  1  0  0  0  0
 13 25  2  0  0  0  0
 14 23  1  0  0  0  0
 14 38  1  0  0  0  0
 14 39  1  0  0  0  0
 15 16  2  0  0  0  0
 15 21  1  0  0  0  0
 16 18  1  0  0  0  0
 17 20  1  0  0  0  0
 17 27  1  0  0  0  0
 17 28  1  0  0  0  0
 18 22  1  0  0  0  0
 18 29  1  0  0  0  0
 18 30  1  0  0  0  0
 19 31  1  0  0  0  0
 20 23  1  0  0  0  0
 20 24  2  0  0  0  0
 21 34  1  0  0  0  0
 21 35  1  0  0  0  0
 21 36  1  0  0  0  0
 22 32  1  0  0  0  0
 22 33  1  0  0  0  0
 24 37  1  0  0  0  0
 25 26  1  0  0  0  0
 26 40  1  0  0  0  0
 26 41  1  0  0  0  0
 26 42  1  0  0  0  0
M  END
