DB01212
 OpenBabel07062211533D

 54 57  0  0  1  0  0  0  0  0999 V2000
    0.7082   -1.4355    1.8333 S   0  0  0  0  0  0  0  0  0  0  0  0
   -3.4264    0.7776    0.7898 S   0  0  0  0  0  0  0  0  0  0  0  0
    3.5207    3.9050   -0.9953 S   0  0  0  0  0  0  0  0  0  0  0  0
    1.3317   -1.4811   -2.7735 O   0  0  0  0  0  0  0  0  0  0  0  0
   -1.7809   -2.1018   -2.7803 O   0  0  0  0  0  0  0  0  0  0  0  0
   -2.1863    0.0691   -2.1862 O   0  0  0  0  0  0  0  0  0  0  0  0
    4.4211   -1.1226   -2.0050 O   0  0  0  0  0  0  0  0  0  0  0  0
    6.2047   -1.4150    0.5219 O   0  0  0  0  0  0  0  0  0  0  0  0
   -7.5429    0.7390    3.4075 O   0  0  0  0  0  0  0  0  0  0  0  0
   -9.0995    1.3166    1.3827 O   0  0  0  0  0  0  0  0  0  0  0  0
    0.1833   -1.8161   -0.7413 N   0  0  0  0  0  0  0  0  0  0  0  0
    3.1147   -1.2171   -0.0571 N   0  0  0  0  0  0  0  0  0  0  0  0
   -5.9429    1.0071   -0.2196 N   0  0  0  0  0  0  0  0  0  0  0  0
    6.0222   -0.0257    0.4789 N   0  0  0  0  0  0  0  0  0  0  0  0
   -5.6284    0.8170    2.1543 N   0  0  0  0  0  0  0  0  0  0  0  0
   -7.3040    1.2108   -0.0679 N   0  0  0  0  0  0  0  0  0  0  0  0
    5.4346    2.6849    0.2420 N   0  0  0  0  0  0  0  0  0  0  0  0
    5.4662    5.0426    0.4166 N   0  0  0  0  0  0  0  0  0  0  0  0
    0.8842   -2.4599    0.3548 C   0  0  1  0  0  0  0  0  0  0  0  0
    2.1711   -2.2538   -0.4739 C   0  0  1  0  0  0  0  0  0  0  0  0
    1.2143   -1.8016   -1.6139 C   0  0  0  0  0  0  0  0  0  0  0  0
   -1.1171   -1.4298   -0.6824 C   0  0  0  0  0  0  0  0  0  0  0  0
   -1.7780   -1.3484    0.4969 C   0  0  0  0  0  0  0  0  0  0  0  0
   -1.1111   -1.5782    1.8512 C   0  0  0  0  0  0  0  0  0  0  0  0
   -3.2420   -1.0068    0.6372 C   0  0  0  0  0  0  0  0  0  0  0  0
   -1.7556   -1.0415   -1.9490 C   0  0  0  0  0  0  0  0  0  0  0  0
    4.1379   -0.7660   -0.8727 C   0  0  0  0  0  0  0  0  0  0  0  0
    4.9804    0.3019   -0.2243 C   0  0  0  0  0  0  0  0  0  0  0  0
   -5.1923    0.8781    0.9348 C   0  0  0  0  0  0  0  0  0  0  0  0
    4.6474    1.7236   -0.3614 C   0  0  0  0  0  0  0  0  0  0  0  0
    3.5647    2.1924   -1.0757 C   0  0  0  0  0  0  0  0  0  0  0  0
   -5.4470    1.0736   -1.5820 C   0  0  0  0  0  0  0  0  0  0  0  0
   -6.9877    0.8848    2.3227 C   0  0  0  0  0  0  0  0  0  0  0  0
   -7.9071    1.1584    1.1625 C   0  0  0  0  0  0  0  0  0  0  0  0
    4.9354    3.8714   -0.0246 C   0  0  0  0  0  0  0  0  0  0  0  0
    7.3571   -1.6840    1.3054 C   0  0  0  0  0  0  0  0  0  0  0  0
    0.6019   -3.5116    0.4826 H   0  0  0  0  0  0  0  0  0  0  0  0
    2.6891   -3.1930   -0.7014 H   0  0  0  0  0  0  0  0  0  0  0  0
   -1.4645   -0.8412    2.5797 H   0  0  0  0  0  0  0  0  0  0  0  0
   -1.3843   -2.5712    2.2249 H   0  0  0  0  0  0  0  0  0  0  0  0
    3.0302   -0.8037    0.8686 H   0  0  0  0  0  0  0  0  0  0  0  0
   -3.6724   -1.5080    1.5116 H   0  0  0  0  0  0  0  0  0  0  0  0
   -3.8088   -1.3627   -0.2296 H   0  0  0  0  0  0  0  0  0  0  0  0
   -2.2004   -1.8865   -3.6405 H   0  0  0  0  0  0  0  0  0  0  0  0
    2.8150    1.6419   -1.6264 H   0  0  0  0  0  0  0  0  0  0  0  0
   -7.8304    1.3942   -0.9152 H   0  0  0  0  0  0  0  0  0  0  0  0
   -4.9281    0.1474   -1.8460 H   0  0  0  0  0  0  0  0  0  0  0  0
   -4.7600    1.9173   -1.7030 H   0  0  0  0  0  0  0  0  0  0  0  0
   -6.2533    1.2044   -2.3128 H   0  0  0  0  0  0  0  0  0  0  0  0
    8.2410   -1.2237    0.8529 H   0  0  0  0  0  0  0  0  0  0  0  0
    7.2189   -1.3126    2.3256 H   0  0  0  0  0  0  0  0  0  0  0  0
    7.5055   -2.7664    1.3431 H   0  0  0  0  0  0  0  0  0  0  0  0
    6.3013    5.0676    0.9923 H   0  0  0  0  0  0  0  0  0  0  0  0
    5.0487    5.9386    0.1872 H   0  0  0  0  0  0  0  0  0  0  0  0
  1 19  1  0  0  0  0
  1 24  1  0  0  0  0
  2 25  1  0  0  0  0
  2 29  1  0  0  0  0
  3 31  1  0  0  0  0
  3 35  1  0  0  0  0
  4 21  2  0  0  0  0
  5 26  1  0  0  0  0
  5 44  1  0  0  0  0
  6 26  2  0  0  0  0
  7 27  2  0  0  0  0
  8 14  1  0  0  0  0
  8 36  1  0  0  0  0
  9 33  2  0  0  0  0
 10 34  2  0  0  0  0
 11 19  1  0  0  0  0
 11 21  1  0  0  0  0
 11 22  1  0  0  0  0
 12 20  1  0  0  0  0
 12 27  1  0  0  0  0
 12 41  1  0  0  0  0
 13 16  2  0  0  0  0
 13 29  1  0  0  0  0
 13 32  1  0  0  0  0
 14 28  2  0  0  0  0
 15 29  2  0  0  0  0
 15 33  1  0  0  0  0
 16 34  1  0  0  0  0
 16 46  1  0  0  0  0
 17 30  1  0  0  0  0
 17 35  2  0  0  0  0
 18 35  1  0  0  0  0
 18 53  1  0  0  0  0
 18 54  1  0  0  0  0
 19 20  1  6  0  0  0
 19 37  1  0  0  0  0
 20 21  1  0  0  0  0
 20 38  1  6  0  0  0
 22 23  2  0  0  0  0
 22 26  1  0  0  0  0
 23 24  1  0  0  0  0
 23 25  1  0  0  0  0
 24 39  1  0  0  0  0
 24 40  1  0  0  0  0
 25 42  1  0  0  0  0
 25 43  1  0  0  0  0
 27 28  1  0  0  0  0
 28 30  1  0  0  0  0
 30 31  2  0  0  0  0
 31 45  1  0  0  0  0
 32 47  1  0  0  0  0
 32 48  1  0  0  0  0
 32 49  1  0  0  0  0
 33 34  1  0  0  0  0
 36 50  1  0  0  0  0
 36 51  1  0  0  0  0
 36 52  1  0  0  0  0
M  END
