DB01043
 OpenBabel07062211533D

 34 36  0  0  1  0  0  0  0  0999 V2000
   -0.0357   -2.7643   -1.2448 N   0  0  0  0  0  0  0  0  0  0  0  0
    1.2806    0.6635   -0.1514 C   0  0  2  0  0  0  0  0  0  0  0  0
   -1.2663    0.6872   -0.1499 C   0  0  1  0  0  0  0  0  0  0  0  0
   -0.0129   -1.4876   -0.5316 C   0  0  1  0  0  0  0  0  0  0  0  0
   -0.0016   -0.4092    1.7498 C   0  0  1  0  0  0  0  0  0  0  0  0
    0.0142    1.4689   -0.5251 C   0  0  0  0  0  0  0  0  0  0  0  0
    1.2515   -0.6862   -0.9072 C   0  0  0  0  0  0  0  0  0  0  0  0
   -1.2635   -0.6624   -0.9059 C   0  0  0  0  0  0  0  0  0  0  0  0
    1.2592    0.3823    1.3680 C   0  0  0  0  0  0  0  0  0  0  0  0
   -1.2482    0.4055    1.3696 C   0  0  0  0  0  0  0  0  0  0  0  0
   -0.0143   -1.7451    0.9889 C   0  0  0  0  0  0  0  0  0  0  0  0
    2.5390    1.4528   -0.5255 C   0  0  0  0  0  0  0  0  0  0  0  0
   -2.5104    1.4994   -0.5223 C   0  0  0  0  0  0  0  0  0  0  0  0
   -0.0028   -0.6008    2.8288 H   0  0  0  0  0  0  0  0  0  0  0  0
    0.0235    2.4389   -0.0097 H   0  0  0  0  0  0  0  0  0  0  0  0
    0.0155    1.6888   -1.6013 H   0  0  0  0  0  0  0  0  0  0  0  0
    1.2772   -0.5076   -1.9911 H   0  0  0  0  0  0  0  0  0  0  0  0
    2.1528   -1.2666   -0.6659 H   0  0  0  0  0  0  0  0  0  0  0  0
   -2.1755   -1.2253   -0.6630 H   0  0  0  0  0  0  0  0  0  0  0  0
   -1.2873   -0.4831   -1.9897 H   0  0  0  0  0  0  0  0  0  0  0  0
    1.2861    1.3255    1.9291 H   0  0  0  0  0  0  0  0  0  0  0  0
    2.1526   -0.1837    1.6620 H   0  0  0  0  0  0  0  0  0  0  0  0
   -2.1515   -0.1440    1.6646 H   0  0  0  0  0  0  0  0  0  0  0  0
   -1.2570    1.3488    1.9307 H   0  0  0  0  0  0  0  0  0  0  0  0
    0.8611   -2.3408    1.2801 H   0  0  0  0  0  0  0  0  0  0  0  0
   -0.9004   -2.3241    1.2817 H   0  0  0  0  0  0  0  0  0  0  0  0
    3.4462    0.8956   -0.2670 H   0  0  0  0  0  0  0  0  0  0  0  0
    2.5700    1.6609   -1.6008 H   0  0  0  0  0  0  0  0  0  0  0  0
    2.5749    2.4125    0.0015 H   0  0  0  0  0  0  0  0  0  0  0  0
   -2.5280    2.4597    0.0049 H   0  0  0  0  0  0  0  0  0  0  0  0
   -2.5390    1.7082   -1.5974 H   0  0  0  0  0  0  0  0  0  0  0  0
   -3.4275    0.9592   -0.2626 H   0  0  0  0  0  0  0  0  0  0  0  0
   -0.8561   -3.3023   -0.9683 H   0  0  0  0  0  0  0  0  0  0  0  0
    0.7735   -3.3243   -0.9792 H   0  0  0  0  0  0  0  0  0  0  0  0
  1 33  1  0  0  0  0
  1 34  1  0  0  0  0
  2  6  1  0  0  0  0
  2  7  1  0  0  0  0
  2  9  1  0  0  0  0
  2 12  1  6  0  0  0
  3  6  1  0  0  0  0
  3  8  1  0  0  0  0
  3 10  1  0  0  0  0
  3 13  1  6  0  0  0
  4  1  1  6  0  0  0
  4  7  1  0  0  0  0
  4  8  1  0  0  0  0
  4 11  1  0  0  0  0
  5  9  1  0  0  0  0
  5 10  1  0  0  0  0
  5 11  1  0  0  0  0
  5 14  1  1  0  0  0
  6 15  1  0  0  0  0
  6 16  1  0  0  0  0
  7 17  1  0  0  0  0
  7 18  1  0  0  0  0
  8 19  1  0  0  0  0
  8 20  1  0  0  0  0
  9 21  1  0  0  0  0
  9 22  1  0  0  0  0
 10 23  1  0  0  0  0
 10 24  1  0  0  0  0
 11 25  1  0  0  0  0
 11 26  1  0  0  0  0
 12 27  1  0  0  0  0
 12 28  1  0  0  0  0
 12 29  1  0  0  0  0
 13 30  1  0  0  0  0
 13 31  1  0  0  0  0
 13 32  1  0  0  0  0
M  END
