DB01157
 OpenBabel07062211533D

 50 52  0  0  0  0  0  0  0  0999 V2000
   -4.3148   -2.1852   -0.4565 O   0  0  0  0  0  0  0  0  0  0  0  0
   -4.3935    2.5715    0.0975 O   0  0  0  0  0  0  0  0  0  0  0  0
   -5.7369    0.1523   -0.0257 O   0  0  0  0  0  0  0  0  0  0  0  0
   -0.2097    0.3153   -0.6403 N   0  0  0  0  0  0  0  0  0  0  0  0
    6.0766    0.5409   -1.2863 N   0  0  0  0  0  0  0  0  0  0  0  0
    6.3845    0.2462    1.0855 N   0  0  0  0  0  0  0  0  0  0  0  0
    4.6347   -0.3954    2.4719 N   0  0  0  0  0  0  0  0  0  0  0  0
    8.1693    0.8948   -0.2865 N   0  0  0  0  0  0  0  0  0  0  0  0
    2.0529   -0.4926   -0.9420 C   0  0  0  0  0  0  0  0  0  0  0  0
    2.8618   -0.4719    0.1896 C   0  0  0  0  0  0  0  0  0  0  0  0
    0.6058   -0.8568   -0.8680 C   0  0  0  0  0  0  0  0  0  0  0  0
    4.2191   -0.1238    0.0773 C   0  0  0  0  0  0  0  0  0  0  0  0
    4.7797    0.2067   -1.1673 C   0  0  0  0  0  0  0  0  0  0  0  0
    2.5964   -0.1672   -2.1798 C   0  0  0  0  0  0  0  0  0  0  0  0
    3.9471    0.1778   -2.2835 C   0  0  0  0  0  0  0  0  0  0  0  0
    2.1991   -0.8351    1.4847 C   0  0  0  0  0  0  0  0  0  0  0  0
   -1.5851    0.2747   -0.4876 C   0  0  0  0  0  0  0  0  0  0  0  0
    5.0820   -0.0838    1.1688 C   0  0  0  0  0  0  0  0  0  0  0  0
   -2.3236    1.4532   -0.2680 C   0  0  0  0  0  0  0  0  0  0  0  0
   -2.2838   -0.9462   -0.5472 C   0  0  0  0  0  0  0  0  0  0  0  0
   -3.6695   -0.9871   -0.3932 C   0  0  0  0  0  0  0  0  0  0  0  0
   -3.7093    1.4124   -0.1134 C   0  0  0  0  0  0  0  0  0  0  0  0
   -4.3823    0.1923   -0.1760 C   0  0  0  0  0  0  0  0  0  0  0  0
    6.8085    0.5426   -0.1537 C   0  0  0  0  0  0  0  0  0  0  0  0
   -4.4778   -2.8990    0.7674 C   0  0  0  0  0  0  0  0  0  0  0  0
   -4.5753    2.9793    1.4520 C   0  0  0  0  0  0  0  0  0  0  0  0
   -6.5230    0.2768   -1.2084 C   0  0  0  0  0  0  0  0  0  0  0  0
    0.3210   -1.2884   -1.8388 H   0  0  0  0  0  0  0  0  0  0  0  0
    0.4131   -1.6722   -0.1633 H   0  0  0  0  0  0  0  0  0  0  0  0
    1.9848   -0.1729   -3.0784 H   0  0  0  0  0  0  0  0  0  0  0  0
    0.2394    1.2236   -0.5899 H   0  0  0  0  0  0  0  0  0  0  0  0
    4.3480    0.4290   -3.2637 H   0  0  0  0  0  0  0  0  0  0  0  0
    2.3124   -0.0351    2.2203 H   0  0  0  0  0  0  0  0  0  0  0  0
    1.1132   -0.9284    1.4614 H   0  0  0  0  0  0  0  0  0  0  0  0
    2.5604   -1.7994    1.8536 H   0  0  0  0  0  0  0  0  0  0  0  0
   -1.8079    2.4105   -0.2184 H   0  0  0  0  0  0  0  0  0  0  0  0
   -1.7654   -1.8859   -0.7201 H   0  0  0  0  0  0  0  0  0  0  0  0
    4.3612   -1.3548    2.6448 H   0  0  0  0  0  0  0  0  0  0  0  0
    4.0856    0.3148    2.9411 H   0  0  0  0  0  0  0  0  0  0  0  0
    8.7610    0.9104    0.5327 H   0  0  0  0  0  0  0  0  0  0  0  0
    8.5361    1.1257   -1.1995 H   0  0  0  0  0  0  0  0  0  0  0  0
   -3.5030   -3.1503    1.1973 H   0  0  0  0  0  0  0  0  0  0  0  0
   -5.0157   -3.8267    0.5540 H   0  0  0  0  0  0  0  0  0  0  0  0
   -5.0634   -2.3113    1.4815 H   0  0  0  0  0  0  0  0  0  0  0  0
   -5.1387    2.2245    2.0096 H   0  0  0  0  0  0  0  0  0  0  0  0
   -5.1441    3.9131    1.4552 H   0  0  0  0  0  0  0  0  0  0  0  0
   -3.6076    3.1570    1.9319 H   0  0  0  0  0  0  0  0  0  0  0  0
   -6.3374    1.2395   -1.6951 H   0  0  0  0  0  0  0  0  0  0  0  0
   -7.5779    0.2264   -0.9252 H   0  0  0  0  0  0  0  0  0  0  0  0
   -6.3080   -0.5421   -1.9022 H   0  0  0  0  0  0  0  0  0  0  0  0
  1 21  1  0  0  0  0
  1 25  1  0  0  0  0
  2 22  1  0  0  0  0
  2 26  1  0  0  0  0
  3 23  1  0  0  0  0
  3 27  1  0  0  0  0
  4 11  1  0  0  0  0
  4 17  1  0  0  0  0
  4 31  1  0  0  0  0
  5 13  2  0  0  0  0
  5 24  1  0  0  0  0
  6 18  1  0  0  0  0
  6 24  2  0  0  0  0
  7 18  1  0  0  0  0
  7 38  1  0  0  0  0
  7 39  1  0  0  0  0
  8 24  1  0  0  0  0
  8 40  1  0  0  0  0
  8 41  1  0  0  0  0
  9 10  2  0  0  0  0
  9 11  1  0  0  0  0
  9 14  1  0  0  0  0
 10 12  1  0  0  0  0
 10 16  1  0  0  0  0
 11 28  1  0  0  0  0
 11 29  1  0  0  0  0
 12 13  1  0  0  0  0
 12 18  2  0  0  0  0
 13 15  1  0  0  0  0
 14 15  2  0  0  0  0
 14 30  1  0  0  0  0
 15 32  1  0  0  0  0
 16 33  1  0  0  0  0
 16 34  1  0  0  0  0
 16 35  1  0  0  0  0
 17 19  2  0  0  0  0
 17 20  1  0  0  0  0
 19 22  1  0  0  0  0
 19 36  1  0  0  0  0
 20 21  2  0  0  0  0
 20 37  1  0  0  0  0
 21 23  1  0  0  0  0
 22 23  2  0  0  0  0
 25 42  1  0  0  0  0
 25 43  1  0  0  0  0
 25 44  1  0  0  0  0
 26 45  1  0  0  0  0
 26 46  1  0  0  0  0
 26 47  1  0  0  0  0
 27 48  1  0  0  0  0
 27 49  1  0  0  0  0
 27 50  1  0  0  0  0
M  END
