DB01099
 OpenBabel07062211533D

 13 13  0  0  0  0  0  0  0  0999 V2000
    0.8229    2.3155    0.0001 F   0  0  0  0  0  0  0  0  0  0  0  0
   -2.2313   -2.0656   -0.0007 O   0  0  0  0  0  0  0  0  0  0  0  0
   -0.1506   -1.1384    0.0006 N   0  0  0  0  0  0  0  0  0  0  0  0
    2.0588   -0.2311   -0.0004 N   0  0  0  0  0  0  0  0  0  0  0  0
   -2.1142    0.2192   -0.0002 N   0  0  0  0  0  0  0  0  0  0  0  0
    0.7039   -0.0535    0.0003 C   0  0  0  0  0  0  0  0  0  0  0  0
    0.1389    1.1592    0.0004 C   0  0  0  0  0  0  0  0  0  0  0  0
   -1.5434   -1.0434    0.0004 C   0  0  0  0  0  0  0  0  0  0  0  0
   -1.3234    1.2420    0.0001 C   0  0  0  0  0  0  0  0  0  0  0  0
    0.2743   -2.0610    0.0003 H   0  0  0  0  0  0  0  0  0  0  0  0
   -1.7479    2.2581   -0.0003 H   0  0  0  0  0  0  0  0  0  0  0  0
    2.6779    0.5698   -0.0003 H   0  0  0  0  0  0  0  0  0  0  0  0
    2.4342   -1.1709   -0.0001 H   0  0  0  0  0  0  0  0  0  0  0  0
  1  7  1  0  0  0  0
  2  8  2  0  0  0  0
  3  6  1  0  0  0  0
  3  8  1  0  0  0  0
  3 10  1  0  0  0  0
  4  6  1  0  0  0  0
  4 12  1  0  0  0  0
  4 13  1  0  0  0  0
  5  8  1  0  0  0  0
  5  9  2  0  0  0  0
  6  7  2  0  0  0  0
  7  9  1  0  0  0  0
  9 11  1  0  0  0  0
M  END
