DB01183
 OpenBabel07062211533D

 45 49  0  0  1  0  0  0  0  0999 V2000
   -2.7273   -0.4183   -1.7264 O   0  0  0  0  0  0  0  0  0  0  0  0
    0.2544    2.6708   -0.1637 O   0  0  0  0  0  0  0  0  0  0  0  0
   -4.3138    1.4114   -0.5189 O   0  0  0  0  0  0  0  0  0  0  0  0
   -3.7798   -3.0804   -1.1432 O   0  0  0  0  0  0  0  0  0  0  0  0
    2.0379    0.5782    0.0959 N   0  0  0  0  0  0  0  0  0  0  0  0
   -0.7539    0.5327   -0.7022 C   0  0  1  0  0  0  0  0  0  0  0  0
   -0.2427    1.4532    0.4160 C   0  0  1  0  0  0  0  0  0  0  0  0
    0.9476    0.6975    1.0989 C   0  0  1  0  0  0  0  0  0  0  0  0
   -2.1128    0.8541   -1.3450 C   0  0  2  0  0  0  0  0  0  0  0  0
    0.3636    0.3195   -1.7505 C   0  0  0  0  0  0  0  0  0  0  0  0
   -1.1359   -0.7883   -0.1291 C   0  0  0  0  0  0  0  0  0  0  0  0
   -1.3683    1.8672    1.3805 C   0  0  0  0  0  0  0  0  0  0  0  0
    0.5012   -0.6653    1.7379 C   0  0  0  0  0  0  0  0  0  0  0  0
    1.6757   -0.1717   -1.1111 C   0  0  0  0  0  0  0  0  0  0  0  0
   -0.5455   -1.4124    0.9532 C   0  0  0  0  0  0  0  0  0  0  0  0
   -2.5258    2.5122    0.6200 C   0  0  0  0  0  0  0  0  0  0  0  0
   -3.0959    1.5576   -0.4046 C   0  0  0  0  0  0  0  0  0  0  0  0
   -2.2248   -1.3044   -0.8020 C   0  0  0  0  0  0  0  0  0  0  0  0
    3.3009    0.1114    0.6573 C   0  0  0  0  0  0  0  0  0  0  0  0
   -1.0429   -2.6685    1.3004 C   0  0  0  0  0  0  0  0  0  0  0  0
   -2.7213   -2.5478   -0.4856 C   0  0  0  0  0  0  0  0  0  0  0  0
   -2.1110   -3.2371    0.5726 C   0  0  0  0  0  0  0  0  0  0  0  0
    4.4279    0.2650   -0.3172 C   0  0  0  0  0  0  0  0  0  0  0  0
    5.1773   -0.7509   -0.7600 C   0  0  0  0  0  0  0  0  0  0  0  0
    1.3328    1.3404    1.9019 H   0  0  0  0  0  0  0  0  0  0  0  0
   -2.0065    1.4781   -2.2396 H   0  0  0  0  0  0  0  0  0  0  0  0
    0.5540    1.2622   -2.2802 H   0  0  0  0  0  0  0  0  0  0  0  0
    0.0581   -0.4028   -2.5193 H   0  0  0  0  0  0  0  0  0  0  0  0
   -0.9833    2.5967    2.1035 H   0  0  0  0  0  0  0  0  0  0  0  0
   -1.7459    1.0147    1.9550 H   0  0  0  0  0  0  0  0  0  0  0  0
    0.0670   -0.4399    2.7211 H   0  0  0  0  0  0  0  0  0  0  0  0
    1.3554   -1.3220    1.9271 H   0  0  0  0  0  0  0  0  0  0  0  0
    1.6006   -1.2449   -0.8948 H   0  0  0  0  0  0  0  0  0  0  0  0
    2.4444   -0.0690   -1.8858 H   0  0  0  0  0  0  0  0  0  0  0  0
   -2.2303    3.4360    0.1138 H   0  0  0  0  0  0  0  0  0  0  0  0
   -3.3194    2.7693    1.3310 H   0  0  0  0  0  0  0  0  0  0  0  0
   -0.3697    2.9693   -0.8460 H   0  0  0  0  0  0  0  0  0  0  0  0
    3.2335   -0.9310    0.9893 H   0  0  0  0  0  0  0  0  0  0  0  0
    3.5569    0.7102    1.5402 H   0  0  0  0  0  0  0  0  0  0  0  0
   -0.6250   -3.2110    2.1442 H   0  0  0  0  0  0  0  0  0  0  0  0
   -2.4820   -4.2174    0.8635 H   0  0  0  0  0  0  0  0  0  0  0  0
    4.6522    1.2681   -0.6724 H   0  0  0  0  0  0  0  0  0  0  0  0
   -4.0630   -2.4502   -1.8285 H   0  0  0  0  0  0  0  0  0  0  0  0
    5.9841   -0.5725   -1.4625 H   0  0  0  0  0  0  0  0  0  0  0  0
    5.0011   -1.7703   -0.4351 H   0  0  0  0  0  0  0  0  0  0  0  0
  1  9  1  0  0  0  0
  1 18  1  0  0  0  0
  2  7  1  0  0  0  0
  2 37  1  0  0  0  0
  3 17  2  0  0  0  0
  4 21  1  0  0  0  0
  4 43  1  0  0  0  0
  5  8  1  0  0  0  0
  5 14  1  0  0  0  0
  5 19  1  0  0  0  0
  6  7  1  1  0  0  0
  6 10  1  0  0  0  0
  6 11  1  0  0  0  0
  7  8  1  1  0  0  0
  7 12  1  0  0  0  0
  8 13  1  0  0  0  0
  8 25  1  1  0  0  0
  9  6  1  1  0  0  0
  9 17  1  0  0  0  0
  9 26  1  0  0  0  0
 10 14  1  0  0  0  0
 10 27  1  0  0  0  0
 10 28  1  0  0  0  0
 11 15  2  0  0  0  0
 11 18  1  0  0  0  0
 12 16  1  0  0  0  0
 12 29  1  0  0  0  0
 12 30  1  0  0  0  0
 13 15  1  0  0  0  0
 13 31  1  0  0  0  0
 13 32  1  0  0  0  0
 14 33  1  0  0  0  0
 14 34  1  0  0  0  0
 15 20  1  0  0  0  0
 16 17  1  0  0  0  0
 16 35  1  0  0  0  0
 16 36  1  0  0  0  0
 18 21  2  0  0  0  0
 19 23  1  0  0  0  0
 19 38  1  0  0  0  0
 19 39  1  0  0  0  0
 20 22  2  0  0  0  0
 20 40  1  0  0  0  0
 21 22  1  0  0  0  0
 22 41  1  0  0  0  0
 23 24  2  0  0  0  0
 23 42  1  0  0  0  0
 24 44  1  0  0  0  0
 24 45  1  0  0  0  0
M  END
