DB01331
 OpenBabel07062211533D

 45 47  0  0  1  0  0  0  0  0999 V2000
   -0.4906   -0.9655    1.7254 S   0  0  0  0  0  0  0  0  0  0  0  0
    6.1855    1.4864    0.4091 S   0  0  0  0  0  0  0  0  0  0  0  0
    1.3237   -3.1343   -1.1154 O   0  0  0  0  0  0  0  0  0  0  0  0
    1.0511   -0.3560   -2.6186 O   0  0  0  0  0  0  0  0  0  0  0  0
   -4.7557    0.5653    0.4910 O   0  0  0  0  0  0  0  0  0  0  0  0
   -1.9749    0.4346   -3.1493 O   0  0  0  0  0  0  0  0  0  0  0  0
    3.6334   -0.9469   -1.3133 O   0  0  0  0  0  0  0  0  0  0  0  0
   -1.6271    2.4028   -2.0376 O   0  0  0  0  0  0  0  0  0  0  0  0
   -6.0667    2.4573    0.4511 O   0  0  0  0  0  0  0  0  0  0  0  0
   -0.5480   -0.5626   -0.8983 N   0  0  0  0  0  0  0  0  0  0  0  0
    2.0588   -1.3309    0.3465 N   0  0  0  0  0  0  0  0  0  0  0  0
   -6.9905    0.3830    0.8125 N   0  0  0  0  0  0  0  0  0  0  0  0
    1.0056   -1.8542   -0.5340 C   0  0  2  0  0  0  0  0  0  0  0  0
   -0.4076   -1.6489    0.0543 C   0  0  1  0  0  0  0  0  0  0  0  0
    0.5714   -0.8182   -1.6099 C   0  0  0  0  0  0  0  0  0  0  0  0
   -1.5765    0.3238   -0.8861 C   0  0  0  0  0  0  0  0  0  0  0  0
   -2.3938    0.4440    0.1872 C   0  0  0  0  0  0  0  0  0  0  0  0
   -2.1798   -0.3145    1.4952 C   0  0  0  0  0  0  0  0  0  0  0  0
   -3.6040    1.3449    0.2470 C   0  0  0  0  0  0  0  0  0  0  0  0
    3.2968   -0.9183   -0.1306 C   0  0  0  0  0  0  0  0  0  0  0  0
   -1.7228    1.1921   -2.0636 C   0  0  0  0  0  0  0  0  0  0  0  0
    1.2963   -4.2351   -0.2194 C   0  0  0  0  0  0  0  0  0  0  0  0
    4.2182   -0.3998    0.9552 C   0  0  0  0  0  0  0  0  0  0  0  0
    4.5536    1.0376    0.6696 C   0  0  0  0  0  0  0  0  0  0  0  0
    3.7003    2.1154    0.5804 C   0  0  0  0  0  0  0  0  0  0  0  0
   -5.9471    1.2429    0.5738 C   0  0  0  0  0  0  0  0  0  0  0  0
    4.3955    3.3256    0.2940 C   0  0  0  0  0  0  0  0  0  0  0  0
    5.7535    3.1268    0.1755 C   0  0  0  0  0  0  0  0  0  0  0  0
   -1.1086   -2.4691   -0.1411 H   0  0  0  0  0  0  0  0  0  0  0  0
    1.8887   -1.2759    1.3475 H   0  0  0  0  0  0  0  0  0  0  0  0
   -2.3686    0.3496    2.3454 H   0  0  0  0  0  0  0  0  0  0  0  0
   -2.8881   -1.1478    1.5570 H   0  0  0  0  0  0  0  0  0  0  0  0
   -3.4699    2.0754    1.0545 H   0  0  0  0  0  0  0  0  0  0  0  0
   -3.7512    1.9004   -0.6841 H   0  0  0  0  0  0  0  0  0  0  0  0
    1.6126   -5.1289   -0.7636 H   0  0  0  0  0  0  0  0  0  0  0  0
    0.2836   -4.3991    0.1581 H   0  0  0  0  0  0  0  0  0  0  0  0
    1.9858   -4.0730    0.6139 H   0  0  0  0  0  0  0  0  0  0  0  0
    3.7502   -0.4708    1.9432 H   0  0  0  0  0  0  0  0  0  0  0  0
    5.1064   -1.0416    0.9714 H   0  0  0  0  0  0  0  0  0  0  0  0
   -2.0800    0.9757   -3.9607 H   0  0  0  0  0  0  0  0  0  0  0  0
    2.6282    2.0443    0.7140 H   0  0  0  0  0  0  0  0  0  0  0  0
    3.9235    4.2929    0.1809 H   0  0  0  0  0  0  0  0  0  0  0  0
    6.5124    3.8665   -0.0370 H   0  0  0  0  0  0  0  0  0  0  0  0
   -7.9431    0.7199    0.9022 H   0  0  0  0  0  0  0  0  0  0  0  0
   -6.8407   -0.6158    0.9068 H   0  0  0  0  0  0  0  0  0  0  0  0
  1 14  1  0  0  0  0
  1 18  1  0  0  0  0
  2 24  1  0  0  0  0
  2 28  1  0  0  0  0
  3 13  1  0  0  0  0
  3 22  1  0  0  0  0
  4 15  2  0  0  0  0
  5 19  1  0  0  0  0
  5 26  1  0  0  0  0
  6 21  1  0  0  0  0
  6 40  1  0  0  0  0
  7 20  2  0  0  0  0
  8 21  2  0  0  0  0
  9 26  2  0  0  0  0
 10 14  1  0  0  0  0
 10 15  1  0  0  0  0
 10 16  1  0  0  0  0
 11 13  1  0  0  0  0
 11 20  1  0  0  0  0
 11 30  1  0  0  0  0
 12 26  1  0  0  0  0
 12 44  1  0  0  0  0
 12 45  1  0  0  0  0
 13 14  1  1  0  0  0
 13 15  1  0  0  0  0
 14 29  1  6  0  0  0
 16 17  2  0  0  0  0
 16 21  1  0  0  0  0
 17 18  1  0  0  0  0
 17 19  1  0  0  0  0
 18 31  1  0  0  0  0
 18 32  1  0  0  0  0
 19 33  1  0  0  0  0
 19 34  1  0  0  0  0
 20 23  1  0  0  0  0
 22 35  1  0  0  0  0
 22 36  1  0  0  0  0
 22 37  1  0  0  0  0
 23 24  1  0  0  0  0
 23 38  1  0  0  0  0
 23 39  1  0  0  0  0
 24 25  2  0  0  0  0
 25 27  1  0  0  0  0
 25 41  1  0  0  0  0
 27 28  2  0  0  0  0
 27 42  1  0  0  0  0
 28 43  1  0  0  0  0
M  END
