DB01075
 OpenBabel07062211533D

 40 41  0  0  0  0  0  0  0  0999 V2000
    0.5843   -0.1822   -0.1309 O   0  0  0  0  0  0  0  0  0  0  0  0
    3.4078   -0.5287   -0.0344 N   0  0  0  0  0  0  0  0  0  0  0  0
   -0.6994   -0.1244    0.4758 C   0  0  0  0  0  0  0  0  0  0  0  0
   -1.3727    1.1915    0.1452 C   0  0  0  0  0  0  0  0  0  0  0  0
   -1.5475   -1.3284    0.1140 C   0  0  0  0  0  0  0  0  0  0  0  0
    1.4243    0.8704    0.3244 C   0  0  0  0  0  0  0  0  0  0  0  0
    2.7756    0.7488   -0.3617 C   0  0  0  0  0  0  0  0  0  0  0  0
   -2.2640    1.7390    1.0506 C   0  0  0  0  0  0  0  0  0  0  0  0
   -2.4937   -1.7798    1.0155 C   0  0  0  0  0  0  0  0  0  0  0  0
   -1.0805    1.8158   -1.0543 C   0  0  0  0  0  0  0  0  0  0  0  0
   -1.3539   -1.9446   -1.1085 C   0  0  0  0  0  0  0  0  0  0  0  0
    3.5743   -0.6606    1.4126 C   0  0  0  0  0  0  0  0  0  0  0  0
    4.6990   -0.6482   -0.7105 C   0  0  0  0  0  0  0  0  0  0  0  0
   -2.8838    2.9510    0.7465 C   0  0  0  0  0  0  0  0  0  0  0  0
   -3.2740   -2.8872    0.6828 C   0  0  0  0  0  0  0  0  0  0  0  0
   -1.7004    3.0279   -1.3584 C   0  0  0  0  0  0  0  0  0  0  0  0
   -2.1343   -3.0518   -1.4413 C   0  0  0  0  0  0  0  0  0  0  0  0
   -2.6020    3.5954   -0.4581 C   0  0  0  0  0  0  0  0  0  0  0  0
   -3.0943   -3.5230   -0.5456 C   0  0  0  0  0  0  0  0  0  0  0  0
   -0.5247   -0.1698    1.5613 H   0  0  0  0  0  0  0  0  0  0  0  0
    1.0521    1.8650    0.0687 H   0  0  0  0  0  0  0  0  0  0  0  0
    1.5052    0.8573    1.4170 H   0  0  0  0  0  0  0  0  0  0  0  0
    2.6201    0.8000   -1.4468 H   0  0  0  0  0  0  0  0  0  0  0  0
    3.4121    1.5954   -0.0744 H   0  0  0  0  0  0  0  0  0  0  0  0
   -2.4872    1.2505    1.9942 H   0  0  0  0  0  0  0  0  0  0  0  0
   -2.6397   -1.2968    1.9769 H   0  0  0  0  0  0  0  0  0  0  0  0
   -0.4095    1.3820   -1.7900 H   0  0  0  0  0  0  0  0  0  0  0  0
   -0.6190   -1.5883   -1.8241 H   0  0  0  0  0  0  0  0  0  0  0  0
    2.6226   -0.8467    1.9197 H   0  0  0  0  0  0  0  0  0  0  0  0
    4.0613    0.2129    1.8614 H   0  0  0  0  0  0  0  0  0  0  0  0
    4.1903   -1.5378    1.6461 H   0  0  0  0  0  0  0  0  0  0  0  0
    5.1484   -1.6279   -0.5137 H   0  0  0  0  0  0  0  0  0  0  0  0
    5.4065    0.1263   -0.3924 H   0  0  0  0  0  0  0  0  0  0  0  0
    4.5735   -0.5757   -1.7967 H   0  0  0  0  0  0  0  0  0  0  0  0
   -3.5851    3.3935    1.4478 H   0  0  0  0  0  0  0  0  0  0  0  0
   -4.0206   -3.2547    1.3805 H   0  0  0  0  0  0  0  0  0  0  0  0
   -1.4870    3.5261   -2.2998 H   0  0  0  0  0  0  0  0  0  0  0  0
   -1.9962   -3.5458   -2.3986 H   0  0  0  0  0  0  0  0  0  0  0  0
   -3.0858    4.5383   -0.6957 H   0  0  0  0  0  0  0  0  0  0  0  0
   -3.7021   -4.3849   -0.8048 H   0  0  0  0  0  0  0  0  0  0  0  0
  1  3  1  0  0  0  0
  1  6  1  0  0  0  0
  2  7  1  0  0  0  0
  2 12  1  0  0  0  0
  2 13  1  0  0  0  0
  3  4  1  0  0  0  0
  3  5  1  0  0  0  0
  3 20  1  0  0  0  0
  4  8  2  0  0  0  0
  4 10  1  0  0  0  0
  5  9  2  0  0  0  0
  5 11  1  0  0  0  0
  6  7  1  0  0  0  0
  6 21  1  0  0  0  0
  6 22  1  0  0  0  0
  7 23  1  0  0  0  0
  7 24  1  0  0  0  0
  8 14  1  0  0  0  0
  8 25  1  0  0  0  0
  9 15  1  0  0  0  0
  9 26  1  0  0  0  0
 10 16  2  0  0  0  0
 10 27  1  0  0  0  0
 11 17  2  0  0  0  0
 11 28  1  0  0  0  0
 12 29  1  0  0  0  0
 12 30  1  0  0  0  0
 12 31  1  0  0  0  0
 13 32  1  0  0  0  0
 13 33  1  0  0  0  0
 13 34  1  0  0  0  0
 14 18  2  0  0  0  0
 14 35  1  0  0  0  0
 15 19  2  0  0  0  0
 15 36  1  0  0  0  0
 16 18  1  0  0  0  0
 16 37  1  0  0  0  0
 17 19  1  0  0  0  0
 17 38  1  0  0  0  0
 18 39  1  0  0  0  0
 19 40  1  0  0  0  0
M  END
