DB01096
 OpenBabel07062211533D

 41 42  0  0  1  0  0  0  0  0999 V2000
    4.6379    2.5510   -0.1312 O   0  0  0  0  0  0  0  0  0  0  0  0
    4.6263   -2.7681    1.4463 O   0  0  0  0  0  0  0  0  0  0  0  0
    5.7530   -0.8884    1.3178 O   0  0  0  0  0  0  0  0  0  0  0  0
    0.1747   -1.8701   -0.5401 N   0  0  0  0  0  0  0  0  0  0  0  0
   -3.2238   -0.3558   -0.3399 N   0  0  0  0  0  0  0  0  0  0  0  0
    4.7138   -1.5609    1.1196 N   0  0  0  0  0  0  0  0  0  0  0  0
   -1.0561   -1.2778   -1.0425 C   0  0  2  0  0  0  0  0  0  0  0  0
   -0.7421   -0.1302   -2.0074 C   0  0  0  0  0  0  0  0  0  0  0  0
    0.1923    0.9055   -1.3827 C   0  0  0  0  0  0  0  0  0  0  0  0
   -1.9377   -0.8498    0.1293 C   0  0  0  0  0  0  0  0  0  0  0  0
    1.3811    0.2451   -0.7304 C   0  0  0  0  0  0  0  0  0  0  0  0
    1.3115   -1.1017   -0.3227 C   0  0  0  0  0  0  0  0  0  0  0  0
    2.5432    0.9928   -0.4920 C   0  0  0  0  0  0  0  0  0  0  0  0
   -4.0614    0.0628    0.7765 C   0  0  0  0  0  0  0  0  0  0  0  0
    2.4381   -1.6799    0.2809 C   0  0  0  0  0  0  0  0  0  0  0  0
    3.6474    0.4036    0.1204 C   0  0  0  0  0  0  0  0  0  0  0  0
    3.5964   -0.9333    0.5030 C   0  0  0  0  0  0  0  0  0  0  0  0
   -5.3996    0.5891    0.2656 C   0  0  0  0  0  0  0  0  0  0  0  0
   -3.3292    1.1252    1.5901 C   0  0  0  0  0  0  0  0  0  0  0  0
    4.8674    1.2347    0.3534 C   0  0  0  0  0  0  0  0  0  0  0  0
   -1.5853   -2.0579   -1.6051 H   0  0  0  0  0  0  0  0  0  0  0  0
   -1.6533    0.3582   -2.3698 H   0  0  0  0  0  0  0  0  0  0  0  0
   -0.2486   -0.5512   -2.8949 H   0  0  0  0  0  0  0  0  0  0  0  0
   -0.3402    1.5007   -0.6320 H   0  0  0  0  0  0  0  0  0  0  0  0
    0.5295    1.5915   -2.1690 H   0  0  0  0  0  0  0  0  0  0  0  0
   -1.3843   -0.1026    0.7049 H   0  0  0  0  0  0  0  0  0  0  0  0
   -2.0908   -1.7110    0.7933 H   0  0  0  0  0  0  0  0  0  0  0  0
    0.1438   -2.8111   -0.1650 H   0  0  0  0  0  0  0  0  0  0  0  0
   -3.6991   -1.0789   -0.8789 H   0  0  0  0  0  0  0  0  0  0  0  0
    2.5394    2.0330   -0.8056 H   0  0  0  0  0  0  0  0  0  0  0  0
   -4.2725   -0.7966    1.4257 H   0  0  0  0  0  0  0  0  0  0  0  0
    2.3786   -2.7267    0.5744 H   0  0  0  0  0  0  0  0  0  0  0  0
   -6.0458    0.8825    1.1000 H   0  0  0  0  0  0  0  0  0  0  0  0
   -5.2655    1.4642   -0.3803 H   0  0  0  0  0  0  0  0  0  0  0  0
   -5.9295   -0.1780   -0.3097 H   0  0  0  0  0  0  0  0  0  0  0  0
   -2.5407    0.7033    2.2215 H   0  0  0  0  0  0  0  0  0  0  0  0
   -4.0255    1.6216    2.2768 H   0  0  0  0  0  0  0  0  0  0  0  0
   -2.8970    1.9065    0.9541 H   0  0  0  0  0  0  0  0  0  0  0  0
    5.0817    1.3405    1.4213 H   0  0  0  0  0  0  0  0  0  0  0  0
    5.7244    0.8545   -0.2110 H   0  0  0  0  0  0  0  0  0  0  0  0
    5.4474    3.0636    0.0354 H   0  0  0  0  0  0  0  0  0  0  0  0
  1 20  1  0  0  0  0
  1 41  1  0  0  0  0
  2  6  1  0  0  0  0
  3  6  2  0  0  0  0
  4  7  1  0  0  0  0
  4 12  1  0  0  0  0
  4 28  1  0  0  0  0
  5 10  1  0  0  0  0
  5 14  1  0  0  0  0
  5 29  1  0  0  0  0
  6 17  1  0  0  0  0
  7  8  1  0  0  0  0
  7 10  1  0  0  0  0
  7 21  1  6  0  0  0
  8  9  1  0  0  0  0
  8 22  1  0  0  0  0
  8 23  1  0  0  0  0
  9 11  1  0  0  0  0
  9 24  1  0  0  0  0
  9 25  1  0  0  0  0
 10 26  1  0  0  0  0
 10 27  1  0  0  0  0
 11 12  2  0  0  0  0
 11 13  1  0  0  0  0
 12 15  1  0  0  0  0
 13 16  2  0  0  0  0
 13 30  1  0  0  0  0
 14 18  1  0  0  0  0
 14 19  1  0  0  0  0
 14 31  1  0  0  0  0
 15 17  2  0  0  0  0
 15 32  1  0  0  0  0
 16 17  1  0  0  0  0
 16 20  1  0  0  0  0
 18 33  1  0  0  0  0
 18 34  1  0  0  0  0
 18 35  1  0  0  0  0
 19 36  1  0  0  0  0
 19 37  1  0  0  0  0
 19 38  1  0  0  0  0
 20 39  1  0  0  0  0
 20 40  1  0  0  0  0
M  END
