DB01244
 OpenBabel07062211533D

 61 63  0  0  1  0  0  0  0  0999 V2000
    2.0978    0.6376    0.3473 O   0  0  0  0  0  0  0  0  0  0  0  0
    1.6776   -1.8953   -0.8785 N   0  0  0  0  0  0  0  0  0  0  0  0
   -1.3421   -0.0876    0.2776 N   0  0  0  0  0  0  0  0  0  0  0  0
    0.7468   -1.3501    0.0985 C   0  0  2  0  0  0  0  0  0  0  0  0
    2.7658   -2.6471   -0.2541 C   0  0  0  0  0  0  0  0  0  0  0  0
    1.0377   -2.8416   -1.7918 C   0  0  0  0  0  0  0  0  0  0  0  0
    3.3566   -3.4250   -1.4207 C   0  0  0  0  0  0  0  0  0  0  0  0
    2.2219   -3.5498   -2.4328 C   0  0  0  0  0  0  0  0  0  0  0  0
   -0.3672   -0.6123   -0.6509 C   0  0  0  0  0  0  0  0  0  0  0  0
    1.4975   -0.4318    1.0700 C   0  0  0  0  0  0  0  0  0  0  0  0
   -1.5470    1.3603    0.3317 C   0  0  0  0  0  0  0  0  0  0  0  0
   -2.0734   -0.9325    1.1232 C   0  0  0  0  0  0  0  0  0  0  0  0
    2.8481    1.4869    1.2036 C   0  0  0  0  0  0  0  0  0  0  0  0
    3.4630    2.6320    0.3944 C   0  0  0  0  0  0  0  0  0  0  0  0
   -2.6534    1.7713   -0.5997 C   0  0  0  0  0  0  0  0  0  0  0  0
   -1.9688   -0.7947    2.5073 C   0  0  0  0  0  0  0  0  0  0  0  0
   -2.9056   -1.9118    0.5807 C   0  0  0  0  0  0  0  0  0  0  0  0
    2.3834    3.4730   -0.2903 C   0  0  0  0  0  0  0  0  0  0  0  0
    4.3317    3.5115    1.2909 C   0  0  0  0  0  0  0  0  0  0  0  0
   -2.3630    2.1085   -1.9217 C   0  0  0  0  0  0  0  0  0  0  0  0
   -3.9704    1.8150   -0.1421 C   0  0  0  0  0  0  0  0  0  0  0  0
   -2.6962   -1.6363    3.3490 C   0  0  0  0  0  0  0  0  0  0  0  0
   -3.6329   -2.7532    1.4224 C   0  0  0  0  0  0  0  0  0  0  0  0
   -3.5283   -2.6154    2.8066 C   0  0  0  0  0  0  0  0  0  0  0  0
   -3.3894    2.4897   -2.7859 C   0  0  0  0  0  0  0  0  0  0  0  0
   -4.9968    2.1961   -1.0064 C   0  0  0  0  0  0  0  0  0  0  0  0
   -4.7063    2.5334   -2.3284 C   0  0  0  0  0  0  0  0  0  0  0  0
    0.3121   -2.1682    0.6890 H   0  0  0  0  0  0  0  0  0  0  0  0
    3.5345   -2.0069    0.1898 H   0  0  0  0  0  0  0  0  0  0  0  0
    2.3995   -3.3465    0.5084 H   0  0  0  0  0  0  0  0  0  0  0  0
    0.4127   -3.5707   -1.2601 H   0  0  0  0  0  0  0  0  0  0  0  0
    0.4396   -2.3591   -2.5706 H   0  0  0  0  0  0  0  0  0  0  0  0
    3.7257   -4.4055   -1.1031 H   0  0  0  0  0  0  0  0  0  0  0  0
    4.1949   -2.8793   -1.8698 H   0  0  0  0  0  0  0  0  0  0  0  0
    2.5084   -3.0611   -3.3716 H   0  0  0  0  0  0  0  0  0  0  0  0
    1.9913   -4.5964   -2.6559 H   0  0  0  0  0  0  0  0  0  0  0  0
   -0.8996   -1.2667   -1.3487 H   0  0  0  0  0  0  0  0  0  0  0  0
    0.0596    0.1887   -1.2685 H   0  0  0  0  0  0  0  0  0  0  0  0
    0.8093   -0.0093    1.8092 H   0  0  0  0  0  0  0  0  0  0  0  0
    2.2571   -0.9772    1.6418 H   0  0  0  0  0  0  0  0  0  0  0  0
   -0.6231    1.8898    0.0640 H   0  0  0  0  0  0  0  0  0  0  0  0
   -1.7732    1.7008    1.3503 H   0  0  0  0  0  0  0  0  0  0  0  0
    3.6448    0.9036    1.6811 H   0  0  0  0  0  0  0  0  0  0  0  0
    2.1937    1.8870    1.9882 H   0  0  0  0  0  0  0  0  0  0  0  0
    4.0926    2.2017   -0.3948 H   0  0  0  0  0  0  0  0  0  0  0  0
   -1.3238   -0.0409    2.9506 H   0  0  0  0  0  0  0  0  0  0  0  0
   -3.0062   -2.0281   -0.4952 H   0  0  0  0  0  0  0  0  0  0  0  0
    1.6954    3.9082    0.4425 H   0  0  0  0  0  0  0  0  0  0  0  0
    1.7954    2.8694   -0.9896 H   0  0  0  0  0  0  0  0  0  0  0  0
    2.8337    4.2928   -0.8601 H   0  0  0  0  0  0  0  0  0  0  0  0
    3.7410    3.9715    2.0904 H   0  0  0  0  0  0  0  0  0  0  0  0
    4.8009    4.3140    0.7118 H   0  0  0  0  0  0  0  0  0  0  0  0
    5.1310    2.9240    1.7550 H   0  0  0  0  0  0  0  0  0  0  0  0
   -1.3415    2.0804   -2.2913 H   0  0  0  0  0  0  0  0  0  0  0  0
   -4.2104    1.5552    0.8856 H   0  0  0  0  0  0  0  0  0  0  0  0
   -2.6142   -1.5297    4.4267 H   0  0  0  0  0  0  0  0  0  0  0  0
   -4.2825   -3.5144    1.0002 H   0  0  0  0  0  0  0  0  0  0  0  0
   -4.0950   -3.2704    3.4619 H   0  0  0  0  0  0  0  0  0  0  0  0
   -3.1631    2.7526   -3.8152 H   0  0  0  0  0  0  0  0  0  0  0  0
   -6.0222    2.2300   -0.6503 H   0  0  0  0  0  0  0  0  0  0  0  0
   -5.5053    2.8301   -3.0013 H   0  0  0  0  0  0  0  0  0  0  0  0
  1 10  1  0  0  0  0
  1 13  1  0  0  0  0
  2  4  1  0  0  0  0
  2  5  1  0  0  0  0
  2  6  1  0  0  0  0
  3  9  1  0  0  0  0
  3 11  1  0  0  0  0
  3 12  1  0  0  0  0
  4  9  1  0  0  0  0
  4 10  1  0  0  0  0
  4 28  1  1  0  0  0
  5  7  1  0  0  0  0
  5 29  1  0  0  0  0
  5 30  1  0  0  0  0
  6  8  1  0  0  0  0
  6 31  1  0  0  0  0
  6 32  1  0  0  0  0
  7  8  1  0  0  0  0
  7 33  1  0  0  0  0
  7 34  1  0  0  0  0
  8 35  1  0  0  0  0
  8 36  1  0  0  0  0
  9 37  1  0  0  0  0
  9 38  1  0  0  0  0
 10 39  1  0  0  0  0
 10 40  1  0  0  0  0
 11 15  1  0  0  0  0
 11 41  1  0  0  0  0
 11 42  1  0  0  0  0
 12 16  2  0  0  0  0
 12 17  1  0  0  0  0
 13 14  1  0  0  0  0
 13 43  1  0  0  0  0
 13 44  1  0  0  0  0
 14 18  1  0  0  0  0
 14 19  1  0  0  0  0
 14 45  1  0  0  0  0
 15 20  2  0  0  0  0
 15 21  1  0  0  0  0
 16 22  1  0  0  0  0
 16 46  1  0  0  0  0
 17 23  2  0  0  0  0
 17 47  1  0  0  0  0
 18 48  1  0  0  0  0
 18 49  1  0  0  0  0
 18 50  1  0  0  0  0
 19 51  1  0  0  0  0
 19 52  1  0  0  0  0
 19 53  1  0  0  0  0
 20 25  1  0  0  0  0
 20 54  1  0  0  0  0
 21 26  2  0  0  0  0
 21 55  1  0  0  0  0
 22 24  2  0  0  0  0
 22 56  1  0  0  0  0
 23 24  1  0  0  0  0
 23 57  1  0  0  0  0
 24 58  1  0  0  0  0
 25 27  2  0  0  0  0
 25 59  1  0  0  0  0
 26 27  1  0  0  0  0
 26 60  1  0  0  0  0
 27 61  1  0  0  0  0
M  END
