DB01219
 OpenBabel07062211533D

 33 35  0  0  0  0  0  0  0  0999 V2000
   -0.2883   -0.1932    0.0008 O   0  0  0  0  0  0  0  0  0  0  0  0
    6.1827    2.7285   -0.0009 O   0  0  0  0  0  0  0  0  0  0  0  0
    5.9624   -1.8555   -0.0003 O   0  0  0  0  0  0  0  0  0  0  0  0
   -7.4529    0.7069   -0.0015 O   0  0  0  0  0  0  0  0  0  0  0  0
   -6.4926    2.6809   -0.0000 O   0  0  0  0  0  0  0  0  0  0  0  0
    4.3272   -0.1711   -0.0001 N   0  0  0  0  0  0  0  0  0  0  0  0
    6.4521    0.4194   -0.0004 N   0  0  0  0  0  0  0  0  0  0  0  0
    3.2325   -0.9584   -0.0003 N   0  0  0  0  0  0  0  0  0  0  0  0
   -6.4260    1.4279   -0.0007 N   0  0  0  0  0  0  0  0  0  0  0  0
    4.2521    1.2577    0.0002 C   0  0  0  0  0  0  0  0  0  0  0  0
   -1.3434   -1.0449    0.0008 C   0  0  0  0  0  0  0  0  0  0  0  0
   -2.6406   -0.4139    0.0005 C   0  0  0  0  0  0  0  0  0  0  0  0
    0.8284   -0.9674    0.0004 C   0  0  0  0  0  0  0  0  0  0  0  0
    5.7319    1.5915    0.0002 C   0  0  0  0  0  0  0  0  0  0  0  0
    5.6186   -0.6815   -0.0003 C   0  0  0  0  0  0  0  0  0  0  0  0
   -0.9228   -2.3495    0.0006 C   0  0  0  0  0  0  0  0  0  0  0  0
    0.4917   -2.3010    0.0002 C   0  0  0  0  0  0  0  0  0  0  0  0
   -3.7962   -1.1949   -0.0002 C   0  0  0  0  0  0  0  0  0  0  0  0
   -2.7392    0.9776    0.0008 C   0  0  0  0  0  0  0  0  0  0  0  0
    2.0921   -0.3127   -0.0001 C   0  0  0  0  0  0  0  0  0  0  0  0
   -5.1492    0.8068   -0.0002 C   0  0  0  0  0  0  0  0  0  0  0  0
   -5.0504   -0.5846   -0.0006 C   0  0  0  0  0  0  0  0  0  0  0  0
   -3.9935    1.5878    0.0004 C   0  0  0  0  0  0  0  0  0  0  0  0
    3.7972    1.6375    0.9187 H   0  0  0  0  0  0  0  0  0  0  0  0
    3.7972    1.6378   -0.9181 H   0  0  0  0  0  0  0  0  0  0  0  0
   -1.5391   -3.2373    0.0006 H   0  0  0  0  0  0  0  0  0  0  0  0
    7.4643    0.3695   -0.0008 H   0  0  0  0  0  0  0  0  0  0  0  0
    1.1746   -3.1387   -0.0001 H   0  0  0  0  0  0  0  0  0  0  0  0
   -3.7519   -2.2809   -0.0005 H   0  0  0  0  0  0  0  0  0  0  0  0
   -1.8623    1.6201    0.0013 H   0  0  0  0  0  0  0  0  0  0  0  0
    2.0049    0.7862   -0.0000 H   0  0  0  0  0  0  0  0  0  0  0  0
   -5.9292   -1.2246   -0.0011 H   0  0  0  0  0  0  0  0  0  0  0  0
   -4.0325    2.6742    0.0007 H   0  0  0  0  0  0  0  0  0  0  0  0
  1 11  1  0  0  0  0
  1 13  1  0  0  0  0
  2 14  2  0  0  0  0
  3 15  2  0  0  0  0
  4  9  1  0  0  0  0
  5  9  2  0  0  0  0
  6  8  1  0  0  0  0
  6 10  1  0  0  0  0
  6 15  1  0  0  0  0
  7 14  1  0  0  0  0
  7 15  1  0  0  0  0
  7 27  1  0  0  0  0
  8 20  2  0  0  0  0
  9 21  1  0  0  0  0
 10 14  1  0  0  0  0
 10 24  1  0  0  0  0
 10 25  1  0  0  0  0
 11 12  1  0  0  0  0
 11 16  2  0  0  0  0
 12 18  2  0  0  0  0
 12 19  1  0  0  0  0
 13 17  2  0  0  0  0
 13 20  1  0  0  0  0
 16 17  1  0  0  0  0
 16 26  1  0  0  0  0
 17 28  1  0  0  0  0
 18 22  1  0  0  0  0
 18 29  1  0  0  0  0
 19 23  2  0  0  0  0
 19 30  1  0  0  0  0
 20 31  1  0  0  0  0
 21 22  2  0  0  0  0
 21 23  1  0  0  0  0
 22 32  1  0  0  0  0
 23 33  1  0  0  0  0
M  END
