DB01091
 OpenBabel07062211533D

 51 53  0  0  0  0  0  0  0  0999 V2000
    1.2217    0.9118    0.6438 N   0  0  0  0  0  0  0  0  0  0  0  0
   -4.9528   -0.5624   -0.4161 C   0  0  0  0  0  0  0  0  0  0  0  0
   -3.6334   -0.1059    0.1073 C   0  0  0  0  0  0  0  0  0  0  0  0
   -5.4232   -1.8684    0.2962 C   0  0  0  0  0  0  0  0  0  0  0  0
   -4.8825   -0.8605   -1.9462 C   0  0  0  0  0  0  0  0  0  0  0  0
   -6.1314    0.4527   -0.2442 C   0  0  0  0  0  0  0  0  0  0  0  0
    0.1549    1.2041    1.6102 C   0  0  0  0  0  0  0  0  0  0  0  0
   -1.1755    0.7441    1.0819 C   0  0  0  0  0  0  0  0  0  0  0  0
   -2.5168   -0.9355    0.0027 C   0  0  0  0  0  0  0  0  0  0  0  0
   -3.5155    1.1504    0.7015 C   0  0  0  0  0  0  0  0  0  0  0  0
    2.5159    1.2791    1.1704 C   0  0  0  0  0  0  0  0  0  0  0  0
   -1.2823   -0.5086    0.4922 C   0  0  0  0  0  0  0  0  0  0  0  0
   -2.2811    1.5774    1.1910 C   0  0  0  0  0  0  0  0  0  0  0  0
    3.6026    0.9221    0.2038 C   0  0  0  0  0  0  0  0  0  0  0  0
    4.2414   -0.3285    0.2302 C   0  0  0  0  0  0  0  0  0  0  0  0
    0.9491    1.6061   -0.6215 C   0  0  0  0  0  0  0  0  0  0  0  0
    5.2615   -0.6044   -0.7112 C   0  0  0  0  0  0  0  0  0  0  0  0
    3.9646    1.8868   -0.7369 C   0  0  0  0  0  0  0  0  0  0  0  0
    3.8900   -1.3112    1.1700 C   0  0  0  0  0  0  0  0  0  0  0  0
    5.6128    0.3782   -1.6512 C   0  0  0  0  0  0  0  0  0  0  0  0
    4.9676    1.6153   -1.6629 C   0  0  0  0  0  0  0  0  0  0  0  0
    5.9003   -1.8548   -0.6850 C   0  0  0  0  0  0  0  0  0  0  0  0
    4.5354   -2.5480    1.1816 C   0  0  0  0  0  0  0  0  0  0  0  0
    5.5388   -2.8193    0.2559 C   0  0  0  0  0  0  0  0  0  0  0  0
   -6.4064   -2.1891   -0.0675 H   0  0  0  0  0  0  0  0  0  0  0  0
   -4.7296   -2.6994    0.1270 H   0  0  0  0  0  0  0  0  0  0  0  0
   -5.4984   -1.7156    1.3793 H   0  0  0  0  0  0  0  0  0  0  0  0
   -4.1746   -1.6650   -2.1742 H   0  0  0  0  0  0  0  0  0  0  0  0
   -5.8589   -1.1688   -2.3378 H   0  0  0  0  0  0  0  0  0  0  0  0
   -4.5625    0.0289   -2.5016 H   0  0  0  0  0  0  0  0  0  0  0  0
   -6.3157    0.6790    0.8126 H   0  0  0  0  0  0  0  0  0  0  0  0
   -5.9327    1.3922   -0.7732 H   0  0  0  0  0  0  0  0  0  0  0  0
   -7.0650    0.0467   -0.6522 H   0  0  0  0  0  0  0  0  0  0  0  0
    0.1310    2.2772    1.8433 H   0  0  0  0  0  0  0  0  0  0  0  0
    0.3401    0.6706    2.5513 H   0  0  0  0  0  0  0  0  0  0  0  0
    2.6986    0.8294    2.1526 H   0  0  0  0  0  0  0  0  0  0  0  0
    2.5601    2.3598    1.3750 H   0  0  0  0  0  0  0  0  0  0  0  0
   -2.5810   -1.9197   -0.4522 H   0  0  0  0  0  0  0  0  0  0  0  0
   -4.3498    1.8347    0.8091 H   0  0  0  0  0  0  0  0  0  0  0  0
   -0.4301   -1.1779    0.4144 H   0  0  0  0  0  0  0  0  0  0  0  0
   -2.2018    2.5576    1.6527 H   0  0  0  0  0  0  0  0  0  0  0  0
    1.0658    2.6929   -0.5317 H   0  0  0  0  0  0  0  0  0  0  0  0
   -0.0590    1.4306   -1.0105 H   0  0  0  0  0  0  0  0  0  0  0  0
    1.5848    1.2350   -1.4314 H   0  0  0  0  0  0  0  0  0  0  0  0
    3.4926    2.8656   -0.7545 H   0  0  0  0  0  0  0  0  0  0  0  0
    3.1048   -1.1684    1.9056 H   0  0  0  0  0  0  0  0  0  0  0  0
    6.3947    0.1881   -2.3836 H   0  0  0  0  0  0  0  0  0  0  0  0
    5.2521    2.3680   -2.3923 H   0  0  0  0  0  0  0  0  0  0  0  0
    6.6869   -2.0888   -1.3993 H   0  0  0  0  0  0  0  0  0  0  0  0
    4.2519   -3.3015    1.9108 H   0  0  0  0  0  0  0  0  0  0  0  0
    6.0400   -3.7829    0.2649 H   0  0  0  0  0  0  0  0  0  0  0  0
  1  7  1  0  0  0  0
  1 11  1  0  0  0  0
  1 16  1  0  0  0  0
  2  3  1  0  0  0  0
  2  4  1  0  0  0  0
  2  5  1  0  0  0  0
  2  6  1  0  0  0  0
  3  9  2  0  0  0  0
  3 10  1  0  0  0  0
  4 25  1  0  0  0  0
  4 26  1  0  0  0  0
  4 27  1  0  0  0  0
  5 28  1  0  0  0  0
  5 29  1  0  0  0  0
  5 30  1  0  0  0  0
  6 31  1  0  0  0  0
  6 32  1  0  0  0  0
  6 33  1  0  0  0  0
  7  8  1  0  0  0  0
  7 34  1  0  0  0  0
  7 35  1  0  0  0  0
  8 12  2  0  0  0  0
  8 13  1  0  0  0  0
  9 12  1  0  0  0  0
  9 38  1  0  0  0  0
 10 13  2  0  0  0  0
 10 39  1  0  0  0  0
 11 14  1  0  0  0  0
 11 36  1  0  0  0  0
 11 37  1  0  0  0  0
 12 40  1  0  0  0  0
 13 41  1  0  0  0  0
 14 15  2  0  0  0  0
 14 18  1  0  0  0  0
 15 17  1  0  0  0  0
 15 19  1  0  0  0  0
 16 42  1  0  0  0  0
 16 43  1  0  0  0  0
 16 44  1  0  0  0  0
 17 20  2  0  0  0  0
 17 22  1  0  0  0  0
 18 21  2  0  0  0  0
 18 45  1  0  0  0  0
 19 23  2  0  0  0  0
 19 46  1  0  0  0  0
 20 21  1  0  0  0  0
 20 47  1  0  0  0  0
 21 48  1  0  0  0  0
 22 24  2  0  0  0  0
 22 49  1  0  0  0  0
 23 24  1  0  0  0  0
 23 50  1  0  0  0  0
 24 51  1  0  0  0  0
M  END
