DB01076
 OpenBabel07062211533D

 76 79  0  0  1  0  0  0  0  0999 V2000
   -3.8316   -5.4747   -0.1096 F   0  0  0  0  0  0  0  0  0  0  0  0
   -3.5483    2.0859    2.6225 O   0  0  0  0  0  0  0  0  0  0  0  0
   -5.7680    0.1879   -0.5516 O   0  0  0  0  0  0  0  0  0  0  0  0
    4.0702    0.0353    1.5825 O   0  0  0  0  0  0  0  0  0  0  0  0
   -5.9481    2.7930   -4.0836 O   0  0  0  0  0  0  0  0  0  0  0  0
   -5.6132    0.6235   -3.4928 O   0  0  0  0  0  0  0  0  0  0  0  0
   -0.2801   -0.3428    1.3828 N   0  0  0  0  0  0  0  0  0  0  0  0
    3.4774    0.9740   -0.4694 N   0  0  0  0  0  0  0  0  0  0  0  0
    0.8467    0.4346    1.4465 C   0  0  2  0  0  0  0  0  0  0  0  0
   -1.5830    0.0342    1.9197 C   0  0  0  0  0  0  0  0  0  0  0  0
    0.0079   -1.5173    0.7379 C   0  0  0  0  0  0  0  0  0  0  0  0
    0.8427    1.7678    2.0878 C   0  0  0  0  0  0  0  0  0  0  0  0
   -2.4676    0.7866    0.9159 C   0  0  0  0  0  0  0  0  0  0  0  0
    1.8697   -0.2545    0.8333 C   0  0  0  0  0  0  0  0  0  0  0  0
    1.3391   -1.4894    0.3851 C   0  0  0  0  0  0  0  0  0  0  0  0
   -3.8124    1.2500    1.4918 C   0  0  2  0  0  0  0  0  0  0  0  0
   -4.6716    2.0601    0.5037 C   0  0  0  0  0  0  0  0  0  0  0  0
   -0.9903   -2.5452    0.5178 C   0  0  0  0  0  0  0  0  0  0  0  0
    1.1735    2.9141    1.1044 C   0  0  0  0  0  0  0  0  0  0  0  0
    1.7829    1.8543    3.3122 C   0  0  0  0  0  0  0  0  0  0  0  0
    1.9982   -2.5605   -0.3109 C   0  0  0  0  0  0  0  0  0  0  0  0
   -5.0407    1.3839   -0.8241 C   0  0  2  0  0  0  0  0  0  0  0  0
    3.2144    0.2333    0.6988 C   0  0  0  0  0  0  0  0  0  0  0  0
   -5.8509    2.2858   -1.7542 C   0  0  0  0  0  0  0  0  0  0  0  0
   -1.7603   -2.5320   -0.6452 C   0  0  0  0  0  0  0  0  0  0  0  0
   -1.1800   -3.5479    1.4687 C   0  0  0  0  0  0  0  0  0  0  0  0
    2.6082   -3.5885    0.4081 C   0  0  0  0  0  0  0  0  0  0  0  0
    2.0278   -2.5720   -1.7055 C   0  0  0  0  0  0  0  0  0  0  0  0
   -2.7202   -3.5218   -0.8573 C   0  0  0  0  0  0  0  0  0  0  0  0
   -2.1396   -4.5376    1.2567 C   0  0  0  0  0  0  0  0  0  0  0  0
    3.2480   -4.6278   -0.2673 C   0  0  0  0  0  0  0  0  0  0  0  0
    2.6676   -3.6114   -2.3809 C   0  0  0  0  0  0  0  0  0  0  0  0
   -2.9096   -4.5247    0.0938 C   0  0  0  0  0  0  0  0  0  0  0  0
    4.6805    1.6090   -0.8683 C   0  0  0  0  0  0  0  0  0  0  0  0
   -5.7932    1.7932   -3.1800 C   0  0  0  0  0  0  0  0  0  0  0  0
    3.2777   -4.6392   -1.6617 C   0  0  0  0  0  0  0  0  0  0  0  0
    5.8088    1.5415   -0.0509 C   0  0  0  0  0  0  0  0  0  0  0  0
    4.7362    2.3009   -2.0782 C   0  0  0  0  0  0  0  0  0  0  0  0
    6.9928    2.1660   -0.4433 C   0  0  0  0  0  0  0  0  0  0  0  0
    5.9203    2.9253   -2.4706 C   0  0  0  0  0  0  0  0  0  0  0  0
    7.0484    2.8577   -1.6530 C   0  0  0  0  0  0  0  0  0  0  0  0
   -2.0944   -0.8836    2.2310 H   0  0  0  0  0  0  0  0  0  0  0  0
   -1.4371    0.5862    2.8518 H   0  0  0  0  0  0  0  0  0  0  0  0
   -0.1488    2.0240    2.4681 H   0  0  0  0  0  0  0  0  0  0  0  0
   -1.9149    1.6661    0.5607 H   0  0  0  0  0  0  0  0  0  0  0  0
   -2.6375    0.1510    0.0419 H   0  0  0  0  0  0  0  0  0  0  0  0
   -4.3724    0.3797    1.8524 H   0  0  0  0  0  0  0  0  0  0  0  0
   -5.5979    2.3403    1.0243 H   0  0  0  0  0  0  0  0  0  0  0  0
   -4.1582    3.0081    0.2941 H   0  0  0  0  0  0  0  0  0  0  0  0
    0.5763    2.8333    0.1899 H   0  0  0  0  0  0  0  0  0  0  0  0
    0.9519    3.8827    1.5667 H   0  0  0  0  0  0  0  0  0  0  0  0
    2.2303    2.9267    0.8268 H   0  0  0  0  0  0  0  0  0  0  0  0
    1.6343    2.8040    3.8381 H   0  0  0  0  0  0  0  0  0  0  0  0
    1.5778    1.0423    4.0183 H   0  0  0  0  0  0  0  0  0  0  0  0
    2.8371    1.8004    3.0274 H   0  0  0  0  0  0  0  0  0  0  0  0
   -4.1198    1.0917   -1.3420 H   0  0  0  0  0  0  0  0  0  0  0  0
   -6.9034    2.3247   -1.4545 H   0  0  0  0  0  0  0  0  0  0  0  0
   -5.4322    3.2986   -1.7369 H   0  0  0  0  0  0  0  0  0  0  0  0
   -1.6231   -1.7591   -1.3977 H   0  0  0  0  0  0  0  0  0  0  0  0
   -0.5877   -3.5720    2.3804 H   0  0  0  0  0  0  0  0  0  0  0  0
   -4.4046    2.3271    3.0151 H   0  0  0  0  0  0  0  0  0  0  0  0
    2.5944   -3.5944    1.4956 H   0  0  0  0  0  0  0  0  0  0  0  0
    1.5577   -1.7780   -2.2810 H   0  0  0  0  0  0  0  0  0  0  0  0
    2.7047    1.0794   -1.1242 H   0  0  0  0  0  0  0  0  0  0  0  0
   -3.3199   -3.5119   -1.7625 H   0  0  0  0  0  0  0  0  0  0  0  0
   -2.2876   -5.3185    1.9968 H   0  0  0  0  0  0  0  0  0  0  0  0
   -5.1616   -0.4369   -0.1195 H   0  0  0  0  0  0  0  0  0  0  0  0
    3.7230   -5.4282    0.2924 H   0  0  0  0  0  0  0  0  0  0  0  0
    2.6909   -3.6204   -3.4667 H   0  0  0  0  0  0  0  0  0  0  0  0
    3.7757   -5.4483   -2.1877 H   0  0  0  0  0  0  0  0  0  0  0  0
    5.8480    1.0277    0.8985 H   0  0  0  0  0  0  0  0  0  0  0  0
    3.8643    2.3612   -2.7245 H   0  0  0  0  0  0  0  0  0  0  0  0
   -5.9018    2.4629   -5.0062 H   0  0  0  0  0  0  0  0  0  0  0  0
    7.8720    2.1144    0.1924 H   0  0  0  0  0  0  0  0  0  0  0  0
    5.9639    3.4640   -3.4126 H   0  0  0  0  0  0  0  0  0  0  0  0
    7.9703    3.3440   -1.9585 H   0  0  0  0  0  0  0  0  0  0  0  0
  1 33  1  0  0  0  0
  2 16  1  0  0  0  0
  2 61  1  0  0  0  0
  3 22  1  0  0  0  0
  3 67  1  0  0  0  0
  4 23  2  0  0  0  0
  5 35  1  0  0  0  0
  5 73  1  0  0  0  0
  6 35  2  0  0  0  0
  7  9  1  0  0  0  0
  7 10  1  0  0  0  0
  7 11  2  0  0  0  0
  8 23  1  0  0  0  0
  8 34  1  0  0  0  0
  8 64  1  0  0  0  0
  9 12  1  6  0  0  0
  9 14  1  0  0  0  0
 10 13  1  0  0  0  0
 10 42  1  0  0  0  0
 10 43  1  0  0  0  0
 11 15  1  0  0  0  0
 11 18  1  0  0  0  0
 12 19  1  0  0  0  0
 12 20  1  0  0  0  0
 12 44  1  0  0  0  0
 13 16  1  0  0  0  0
 13 45  1  0  0  0  0
 13 46  1  0  0  0  0
 14 15  2  0  0  0  0
 14 23  1  0  0  0  0
 15 21  1  0  0  0  0
 16 17  1  0  0  0  0
 16 47  1  1  0  0  0
 17 22  1  0  0  0  0
 17 48  1  0  0  0  0
 17 49  1  0  0  0  0
 18 25  2  0  0  0  0
 18 26  1  0  0  0  0
 19 50  1  0  0  0  0
 19 51  1  0  0  0  0
 19 52  1  0  0  0  0
 20 53  1  0  0  0  0
 20 54  1  0  0  0  0
 20 55  1  0  0  0  0
 21 27  2  0  0  0  0
 21 28  1  0  0  0  0
 22 24  1  0  0  0  0
 22 56  1  6  0  0  0
 24 35  1  0  0  0  0
 24 57  1  0  0  0  0
 24 58  1  0  0  0  0
 25 29  1  0  0  0  0
 25 59  1  0  0  0  0
 26 30  2  0  0  0  0
 26 60  1  0  0  0  0
 27 31  1  0  0  0  0
 27 62  1  0  0  0  0
 28 32  2  0  0  0  0
 28 63  1  0  0  0  0
 29 33  2  0  0  0  0
 29 65  1  0  0  0  0
 30 33  1  0  0  0  0
 30 66  1  0  0  0  0
 31 36  2  0  0  0  0
 31 68  1  0  0  0  0
 32 36  1  0  0  0  0
 32 69  1  0  0  0  0
 34 37  2  0  0  0  0
 34 38  1  0  0  0  0
 36 70  1  0  0  0  0
 37 39  1  0  0  0  0
 37 71  1  0  0  0  0
 38 40  2  0  0  0  0
 38 72  1  0  0  0  0
 39 41  2  0  0  0  0
 39 74  1  0  0  0  0
 40 41  1  0  0  0  0
 40 75  1  0  0  0  0
 41 76  1  0  0  0  0
M  END
