DB01066
 OpenBabel07062211533D

 51 54  0  0  1  0  0  0  0  0999 V2000
    0.5763   -1.7646   -0.7356 S   0  0  0  0  0  0  0  0  0  0  0  0
   -4.4689   -0.2325   -1.9056 S   0  0  0  0  0  0  0  0  0  0  0  0
    6.0836   -2.7354    1.4208 S   0  0  0  0  0  0  0  0  0  0  0  0
   -0.4989    2.6762    0.1272 O   0  0  0  0  0  0  0  0  0  0  0  0
   -2.9491    1.8932    0.2303 O   0  0  0  0  0  0  0  0  0  0  0  0
   -3.5789    0.3220    1.7682 O   0  0  0  0  0  0  0  0  0  0  0  0
    3.6700    0.8183   -2.2476 O   0  0  0  0  0  0  0  0  0  0  0  0
    4.5562    2.8436   -0.0568 O   0  0  0  0  0  0  0  0  0  0  0  0
   -0.8969    0.4268   -0.4625 N   0  0  0  0  0  0  0  0  0  0  0  0
    2.1406    0.8602   -0.4673 N   0  0  0  0  0  0  0  0  0  0  0  0
    5.0944    1.6490    0.4415 N   0  0  0  0  0  0  0  0  0  0  0  0
    4.2738   -1.8660   -0.2076 N   0  0  0  0  0  0  0  0  0  0  0  0
   -5.7345    1.6360   -0.6450 N   0  0  0  0  0  0  0  0  0  0  0  0
    4.4147   -4.2190   -0.0248 N   0  0  0  0  0  0  0  0  0  0  0  0
   -0.0125   -0.2029   -1.4265 C   0  0  1  0  0  0  0  0  0  0  0  0
    0.9088    1.0215   -1.2378 C   0  0  1  0  0  0  0  0  0  0  0  0
   -0.2658    1.6205   -0.4134 C   0  0  0  0  0  0  0  0  0  0  0  0
   -1.9784   -0.1877    0.0863 C   0  0  0  0  0  0  0  0  0  0  0  0
   -1.1045   -2.4700   -0.6157 C   0  0  0  0  0  0  0  0  0  0  0  0
   -2.1388   -1.5310    0.0026 C   0  0  0  0  0  0  0  0  0  0  0  0
   -2.9286    0.6765    0.8073 C   0  0  0  0  0  0  0  0  0  0  0  0
    3.3888    0.7763   -1.0605 C   0  0  0  0  0  0  0  0  0  0  0  0
   -3.2938   -2.2531    0.5025 C   0  0  0  0  0  0  0  0  0  0  0  0
    4.5049    0.6076   -0.0638 C   0  0  0  0  0  0  0  0  0  0  0  0
   -4.5382   -1.7903    0.3780 C   0  0  0  0  0  0  0  0  0  0  0  0
   -4.8938   -0.5150   -0.2683 C   0  0  0  0  0  0  0  0  0  0  0  0
    4.9128   -0.7669    0.3325 C   0  0  0  0  0  0  0  0  0  0  0  0
   -5.5570    0.5851    0.2338 C   0  0  0  0  0  0  0  0  0  0  0  0
    5.9198   -1.0384    1.2349 C   0  0  0  0  0  0  0  0  0  0  0  0
   -6.0866    0.7370    1.6058 C   0  0  0  0  0  0  0  0  0  0  0  0
    4.8083   -2.9572    0.2942 C   0  0  0  0  0  0  0  0  0  0  0  0
   -5.2009    1.3161   -1.8031 C   0  0  0  0  0  0  0  0  0  0  0  0
    5.2528    3.9250    0.5429 C   0  0  0  0  0  0  0  0  0  0  0  0
   -0.4546   -0.2754   -2.4273 H   0  0  0  0  0  0  0  0  0  0  0  0
    1.0782    1.5823   -2.1656 H   0  0  0  0  0  0  0  0  0  0  0  0
   -1.0043   -3.3812   -0.0158 H   0  0  0  0  0  0  0  0  0  0  0  0
   -1.4331   -2.7657   -1.6187 H   0  0  0  0  0  0  0  0  0  0  0  0
    2.0958    0.7995    0.5475 H   0  0  0  0  0  0  0  0  0  0  0  0
   -3.1241   -3.2028    1.0012 H   0  0  0  0  0  0  0  0  0  0  0  0
   -5.3575   -2.3510    0.8201 H   0  0  0  0  0  0  0  0  0  0  0  0
   -3.5518    2.5153    0.6906 H   0  0  0  0  0  0  0  0  0  0  0  0
    6.5528   -0.3530    1.7809 H   0  0  0  0  0  0  0  0  0  0  0  0
   -5.6570    1.6123    2.1038 H   0  0  0  0  0  0  0  0  0  0  0  0
   -7.1696    0.8996    1.5550 H   0  0  0  0  0  0  0  0  0  0  0  0
   -5.9342   -0.1455    2.2344 H   0  0  0  0  0  0  0  0  0  0  0  0
   -5.2177    1.9887   -2.6494 H   0  0  0  0  0  0  0  0  0  0  0  0
    4.8377    4.8602    0.1583 H   0  0  0  0  0  0  0  0  0  0  0  0
    6.3160    3.8812    0.2876 H   0  0  0  0  0  0  0  0  0  0  0  0
    5.1248    3.9043    1.6297 H   0  0  0  0  0  0  0  0  0  0  0  0
    3.6645   -4.3936   -0.6855 H   0  0  0  0  0  0  0  0  0  0  0  0
    4.8542   -5.0360    0.3862 H   0  0  0  0  0  0  0  0  0  0  0  0
  1 15  1  0  0  0  0
  1 19  1  0  0  0  0
  2 26  1  0  0  0  0
  2 32  1  0  0  0  0
  3 29  1  0  0  0  0
  3 31  1  0  0  0  0
  4 17  2  0  0  0  0
  5 21  1  0  0  0  0
  5 41  1  0  0  0  0
  6 21  2  0  0  0  0
  7 22  2  0  0  0  0
  8 11  1  0  0  0  0
  8 33  1  0  0  0  0
  9 15  1  0  0  0  0
  9 17  1  0  0  0  0
  9 18  1  0  0  0  0
 10 16  1  0  0  0  0
 10 22  1  0  0  0  0
 10 38  1  0  0  0  0
 11 24  2  0  0  0  0
 12 27  1  0  0  0  0
 12 31  2  0  0  0  0
 13 28  1  0  0  0  0
 13 32  2  0  0  0  0
 14 31  1  0  0  0  0
 14 50  1  0  0  0  0
 14 51  1  0  0  0  0
 15 16  1  6  0  0  0
 15 34  1  0  0  0  0
 16 17  1  0  0  0  0
 16 35  1  6  0  0  0
 18 20  2  0  0  0  0
 18 21  1  0  0  0  0
 19 20  1  0  0  0  0
 19 36  1  0  0  0  0
 19 37  1  0  0  0  0
 20 23  1  0  0  0  0
 22 24  1  0  0  0  0
 23 25  2  0  0  0  0
 23 39  1  0  0  0  0
 24 27  1  0  0  0  0
 25 26  1  0  0  0  0
 25 40  1  0  0  0  0
 26 28  2  0  0  0  0
 27 29  2  0  0  0  0
 28 30  1  0  0  0  0
 29 42  1  0  0  0  0
 30 43  1  0  0  0  0
 30 44  1  0  0  0  0
 30 45  1  0  0  0  0
 32 46  1  0  0  0  0
 33 47  1  0  0  0  0
 33 48  1  0  0  0  0
 33 49  1  0  0  0  0
M  END
