DB01191
 OpenBabel07062211533D

 32 32  0  0  1  0  0  0  0  0999 V2000
   -5.4701    1.2989    0.3604 F   0  0  0  0  0  0  0  0  0  0  0  0
   -3.7415    2.5917    0.5714 F   0  0  0  0  0  0  0  0  0  0  0  0
   -4.4058    1.9833   -1.4079 F   0  0  0  0  0  0  0  0  0  0  0  0
    2.5756   -0.1856   -0.5260 N   0  0  0  0  0  0  0  0  0  0  0  0
    1.2311   -0.2028    0.0577 C   0  0  2  0  0  0  0  0  0  0  0  0
    0.2107   -0.6228   -1.0159 C   0  0  0  0  0  0  0  0  0  0  0  0
   -1.2064   -0.7106   -0.5019 C   0  0  0  0  0  0  0  0  0  0  0  0
    0.9391    1.1828    0.6339 C   0  0  0  0  0  0  0  0  0  0  0  0
    3.5673    0.1481    0.4827 C   0  0  0  0  0  0  0  0  0  0  0  0
   -2.0198    0.4101   -0.5572 C   0  0  0  0  0  0  0  0  0  0  0  0
   -1.6679   -1.9108    0.0151 C   0  0  0  0  0  0  0  0  0  0  0  0
   -3.3291    0.3283   -0.0830 C   0  0  0  0  0  0  0  0  0  0  0  0
   -2.9770   -1.9925    0.4892 C   0  0  0  0  0  0  0  0  0  0  0  0
   -3.8076   -0.8730    0.4401 C   0  0  0  0  0  0  0  0  0  0  0  0
    4.9667    0.1672   -0.1086 C   0  0  0  0  0  0  0  0  0  0  0  0
   -4.2179    1.5248   -0.1362 C   0  0  0  0  0  0  0  0  0  0  0  0
    1.1929   -0.9374    0.8733 H   0  0  0  0  0  0  0  0  0  0  0  0
    0.4939   -1.5971   -1.4381 H   0  0  0  0  0  0  0  0  0  0  0  0
    0.2421    0.0774   -1.8626 H   0  0  0  0  0  0  0  0  0  0  0  0
    2.7868   -1.0987   -0.9281 H   0  0  0  0  0  0  0  0  0  0  0  0
   -0.0854    1.2557    1.0085 H   0  0  0  0  0  0  0  0  0  0  0  0
    1.0754    1.9728   -0.1134 H   0  0  0  0  0  0  0  0  0  0  0  0
    1.5493    1.4190    1.5109 H   0  0  0  0  0  0  0  0  0  0  0  0
    3.4248    1.1502    0.8950 H   0  0  0  0  0  0  0  0  0  0  0  0
    3.5408   -0.5717    1.3093 H   0  0  0  0  0  0  0  0  0  0  0  0
   -1.6519    1.3451   -0.9719 H   0  0  0  0  0  0  0  0  0  0  0  0
   -1.0278   -2.7873    0.0596 H   0  0  0  0  0  0  0  0  0  0  0  0
   -3.3492   -2.9276    0.8970 H   0  0  0  0  0  0  0  0  0  0  0  0
   -4.8243   -0.9564    0.8141 H   0  0  0  0  0  0  0  0  0  0  0  0
    5.2378   -0.8132   -0.5146 H   0  0  0  0  0  0  0  0  0  0  0  0
    5.0466    0.9054   -0.9139 H   0  0  0  0  0  0  0  0  0  0  0  0
    5.7009    0.4267    0.6611 H   0  0  0  0  0  0  0  0  0  0  0  0
  1 16  1  0  0  0  0
  2 16  1  0  0  0  0
  3 16  1  0  0  0  0
  4  5  1  0  0  0  0
  4  9  1  0  0  0  0
  4 20  1  0  0  0  0
  5  6  1  0  0  0  0
  5  8  1  0  0  0  0
  5 17  1  1  0  0  0
  6  7  1  0  0  0  0
  6 18  1  0  0  0  0
  6 19  1  0  0  0  0
  7 10  2  0  0  0  0
  7 11  1  0  0  0  0
  8 21  1  0  0  0  0
  8 22  1  0  0  0  0
  8 23  1  0  0  0  0
  9 15  1  0  0  0  0
  9 24  1  0  0  0  0
  9 25  1  0  0  0  0
 10 12  1  0  0  0  0
 10 26  1  0  0  0  0
 11 13  2  0  0  0  0
 11 27  1  0  0  0  0
 12 14  2  0  0  0  0
 12 16  1  0  0  0  0
 13 14  1  0  0  0  0
 13 28  1  0  0  0  0
 14 29  1  0  0  0  0
 15 30  1  0  0  0  0
 15 31  1  0  0  0  0
 15 32  1  0  0  0  0
M  END
