DB01194
 OpenBabel07062211533D

 44 45  0  0  1  0  0  0  0  0999 V2000
   -0.6802   -2.3113    0.1292 S   0  0  0  0  0  0  0  0  0  0  0  0
   -3.3500   -1.4621    1.1404 S   0  0  0  0  0  0  0  0  0  0  0  0
   -5.6150    0.3634    1.4409 S   0  0  0  0  0  0  0  0  0  0  0  0
   -1.2163   -3.3077   -0.7760 O   0  0  0  0  0  0  0  0  0  0  0  0
   -0.2747   -2.6312    1.4819 O   0  0  0  0  0  0  0  0  0  0  0  0
    4.2065   -0.8787    1.5056 O   0  0  0  0  0  0  0  0  0  0  0  0
   -5.7096   -0.4846    2.6237 O   0  0  0  0  0  0  0  0  0  0  0  0
   -5.7200    1.8125    1.5571 O   0  0  0  0  0  0  0  0  0  0  0  0
    0.5670   -1.4054   -0.6601 N   0  0  0  0  0  0  0  0  0  0  0  0
    0.0011    1.5458   -0.2897 N   0  0  0  0  0  0  0  0  0  0  0  0
   -6.7944   -0.1761    0.3143 N   0  0  0  0  0  0  0  0  0  0  0  0
   -0.7978    0.6593   -1.1400 C   0  0  1  0  0  0  0  0  0  0  0  0
    0.0852   -0.4662   -1.7357 C   0  0  0  0  0  0  0  0  0  0  0  0
   -1.9531    0.1462   -0.3178 C   0  0  0  0  0  0  0  0  0  0  0  0
   -1.9505   -1.1030    0.2644 C   0  0  0  0  0  0  0  0  0  0  0  0
    1.7716   -2.1703   -1.0597 C   0  0  0  0  0  0  0  0  0  0  0  0
   -3.1730    0.8298   -0.0200 C   0  0  0  0  0  0  0  0  0  0  0  0
    2.7950   -2.1738    0.0675 C   0  0  0  0  0  0  0  0  0  0  0  0
   -4.0183    0.0729    0.7661 C   0  0  0  0  0  0  0  0  0  0  0  0
    1.1423    2.0693   -1.0230 C   0  0  0  0  0  0  0  0  0  0  0  0
    3.2445   -0.7726    0.4646 C   0  0  0  0  0  0  0  0  0  0  0  0
    1.9599    3.0175   -0.1625 C   0  0  0  0  0  0  0  0  0  0  0  0
    4.6483    0.4003    1.9397 C   0  0  0  0  0  0  0  0  0  0  0  0
   -1.2128    1.2389   -1.9760 H   0  0  0  0  0  0  0  0  0  0  0  0
    0.9067   -0.0916   -2.3506 H   0  0  0  0  0  0  0  0  0  0  0  0
   -0.5221   -1.0597   -2.4348 H   0  0  0  0  0  0  0  0  0  0  0  0
    2.2303   -1.7420   -1.9580 H   0  0  0  0  0  0  0  0  0  0  0  0
    1.4960   -3.1980   -1.3214 H   0  0  0  0  0  0  0  0  0  0  0  0
   -0.5757    2.3217    0.0360 H   0  0  0  0  0  0  0  0  0  0  0  0
   -3.4159    1.8271   -0.3645 H   0  0  0  0  0  0  0  0  0  0  0  0
    2.3954   -2.6865    0.9506 H   0  0  0  0  0  0  0  0  0  0  0  0
    3.6705   -2.7598   -0.2387 H   0  0  0  0  0  0  0  0  0  0  0  0
    0.8178    2.5997   -1.9258 H   0  0  0  0  0  0  0  0  0  0  0  0
    1.8459    1.2873   -1.3161 H   0  0  0  0  0  0  0  0  0  0  0  0
    2.3940   -0.1863    0.8282 H   0  0  0  0  0  0  0  0  0  0  0  0
    3.6907   -0.2613   -0.3961 H   0  0  0  0  0  0  0  0  0  0  0  0
    1.3637    3.8821    0.1483 H   0  0  0  0  0  0  0  0  0  0  0  0
    2.3305    2.5170    0.7381 H   0  0  0  0  0  0  0  0  0  0  0  0
    2.8246    3.3889   -0.7220 H   0  0  0  0  0  0  0  0  0  0  0  0
   -6.8537   -1.1911    0.1613 H   0  0  0  0  0  0  0  0  0  0  0  0
   -6.8735    0.3585   -0.5603 H   0  0  0  0  0  0  0  0  0  0  0  0
    5.3967    0.2581    2.7240 H   0  0  0  0  0  0  0  0  0  0  0  0
    3.8135    0.9733    2.3544 H   0  0  0  0  0  0  0  0  0  0  0  0
    5.1089    0.9495    1.1126 H   0  0  0  0  0  0  0  0  0  0  0  0
  1  4  2  0  0  0  0
  1  5  2  0  0  0  0
  1  9  1  0  0  0  0
  1 15  1  0  0  0  0
  2 15  1  0  0  0  0
  2 19  1  0  0  0  0
  3  7  2  0  0  0  0
  3  8  2  0  0  0  0
  3 11  1  0  0  0  0
  3 19  1  0  0  0  0
  6 21  1  0  0  0  0
  6 23  1  0  0  0  0
  9 13  1  0  0  0  0
  9 16  1  0  0  0  0
 10 12  1  0  0  0  0
 10 20  1  0  0  0  0
 10 29  1  0  0  0  0
 11 40  1  0  0  0  0
 11 41  1  0  0  0  0
 12 13  1  0  0  0  0
 12 14  1  0  0  0  0
 12 24  1  6  0  0  0
 13 25  1  0  0  0  0
 13 26  1  0  0  0  0
 14 15  2  0  0  0  0
 14 17  1  0  0  0  0
 16 18  1  0  0  0  0
 16 27  1  0  0  0  0
 16 28  1  0  0  0  0
 17 19  2  0  0  0  0
 17 30  1  0  0  0  0
 18 21  1  0  0  0  0
 18 31  1  0  0  0  0
 18 32  1  0  0  0  0
 20 22  1  0  0  0  0
 20 33  1  0  0  0  0
 20 34  1  0  0  0  0
 21 35  1  0  0  0  0
 21 36  1  0  0  0  0
 22 37  1  0  0  0  0
 22 38  1  0  0  0  0
 22 39  1  0  0  0  0
 23 42  1  0  0  0  0
 23 43  1  0  0  0  0
 23 44  1  0  0  0  0
M  END
