DB01582
 OpenBabel07062211533D

 33 34  0  0  0  0  0  0  0  0999 V2000
   -0.6745    2.8259    0.4330 S   0  0  0  0  0  0  0  0  0  0  0  0
   -1.5306    3.6874    1.2400 O   0  0  0  0  0  0  0  0  0  0  0  0
   -0.0391    3.3820   -0.7555 O   0  0  0  0  0  0  0  0  0  0  0  0
    0.5269    2.1478    1.4651 N   0  0  0  0  0  0  0  0  0  0  0  0
    1.0832   -0.1416    1.5860 N   0  0  0  0  0  0  0  0  0  0  0  0
    2.1265    1.2942   -0.0441 N   0  0  0  0  0  0  0  0  0  0  0  0
   -3.8751   -1.9239   -1.1649 N   0  0  0  0  0  0  0  0  0  0  0  0
   -1.6140    1.4312   -0.0362 C   0  0  0  0  0  0  0  0  0  0  0  0
   -2.7133    1.0413    0.7291 C   0  0  0  0  0  0  0  0  0  0  0  0
   -1.2656    0.7066   -1.1761 C   0  0  0  0  0  0  0  0  0  0  0  0
    1.2914    1.0336    0.9729 C   0  0  0  0  0  0  0  0  0  0  0  0
   -3.1156   -0.7975   -0.7852 C   0  0  0  0  0  0  0  0  0  0  0  0
   -3.4639   -0.0731    0.3545 C   0  0  0  0  0  0  0  0  0  0  0  0
   -2.0164   -0.4078   -1.5506 C   0  0  0  0  0  0  0  0  0  0  0  0
    1.8161   -1.1646    1.0993 C   0  0  0  0  0  0  0  0  0  0  0  0
    2.8273    0.2271   -0.4807 C   0  0  0  0  0  0  0  0  0  0  0  0
    2.7124   -1.0381    0.0579 C   0  0  0  0  0  0  0  0  0  0  0  0
    1.6230   -2.4950    1.7461 C   0  0  0  0  0  0  0  0  0  0  0  0
    3.7711    0.4618   -1.6119 C   0  0  0  0  0  0  0  0  0  0  0  0
    0.2417    2.0343    2.4466 H   0  0  0  0  0  0  0  0  0  0  0  0
   -2.9988    1.5857    1.6247 H   0  0  0  0  0  0  0  0  0  0  0  0
   -0.4134    0.9908   -1.7869 H   0  0  0  0  0  0  0  0  0  0  0  0
   -4.3172   -0.3680    0.9600 H   0  0  0  0  0  0  0  0  0  0  0  0
   -1.7345   -0.9646   -2.4406 H   0  0  0  0  0  0  0  0  0  0  0  0
    3.2880   -1.8774   -0.3131 H   0  0  0  0  0  0  0  0  0  0  0  0
    2.5647   -2.8496    2.1767 H   0  0  0  0  0  0  0  0  0  0  0  0
    0.8839   -2.4370    2.5519 H   0  0  0  0  0  0  0  0  0  0  0  0
    1.2663   -3.2261    1.0135 H   0  0  0  0  0  0  0  0  0  0  0  0
    3.7509    1.5095   -1.9299 H   0  0  0  0  0  0  0  0  0  0  0  0
    4.7952    0.2205   -1.3100 H   0  0  0  0  0  0  0  0  0  0  0  0
    3.4960   -0.1569   -2.4720 H   0  0  0  0  0  0  0  0  0  0  0  0
   -4.6711   -2.2081   -0.6095 H   0  0  0  0  0  0  0  0  0  0  0  0
   -3.6217   -2.4505   -1.9902 H   0  0  0  0  0  0  0  0  0  0  0  0
  1  2  2  0  0  0  0
  1  3  2  0  0  0  0
  1  4  1  0  0  0  0
  1  8  1  0  0  0  0
  4 11  1  0  0  0  0
  4 20  1  0  0  0  0
  5 11  2  0  0  0  0
  5 15  1  0  0  0  0
  6 11  1  0  0  0  0
  6 16  2  0  0  0  0
  7 12  1  0  0  0  0
  7 32  1  0  0  0  0
  7 33  1  0  0  0  0
  8  9  2  0  0  0  0
  8 10  1  0  0  0  0
  9 13  1  0  0  0  0
  9 21  1  0  0  0  0
 10 14  2  0  0  0  0
 10 22  1  0  0  0  0
 12 13  2  0  0  0  0
 12 14  1  0  0  0  0
 13 23  1  0  0  0  0
 14 24  1  0  0  0  0
 15 17  2  0  0  0  0
 15 18  1  0  0  0  0
 16 17  1  0  0  0  0
 16 19  1  0  0  0  0
 17 25  1  0  0  0  0
 18 26  1  0  0  0  0
 18 27  1  0  0  0  0
 18 28  1  0  0  0  0
 19 29  1  0  0  0  0
 19 30  1  0  0  0  0
 19 31  1  0  0  0  0
M  END
