DB01114
 OpenBabel07062211533D

 38 39  0  0  1  0  0  0  0  0999 V2000
   -6.2077    1.3884    0.3543 Cl  0  0  0  0  0  0  0  0  0  0  0  0
    2.4946    1.0644    0.2531 N   0  0  0  0  0  0  0  0  0  0  0  0
   -0.5547   -1.9338   -1.1064 N   0  0  0  0  0  0  0  0  0  0  0  0
   -0.3372    0.1709    0.0715 C   0  0  1  0  0  0  0  0  0  0  0  0
    0.4013    0.9823   -1.0252 C   0  0  0  0  0  0  0  0  0  0  0  0
    1.9108    0.7150   -1.0376 C   0  0  0  0  0  0  0  0  0  0  0  0
   -1.8295    0.4807    0.1439 C   0  0  0  0  0  0  0  0  0  0  0  0
   -0.0888   -1.3301   -0.0066 C   0  0  0  0  0  0  0  0  0  0  0  0
   -2.4722    0.3693    1.3578 C   0  0  0  0  0  0  0  0  0  0  0  0
   -2.4838    0.8617   -1.0075 C   0  0  0  0  0  0  0  0  0  0  0  0
    0.5763   -1.9316    1.0303 C   0  0  0  0  0  0  0  0  0  0  0  0
    2.3120    2.4895    0.5317 C   0  0  0  0  0  0  0  0  0  0  0  0
    3.9163    0.7183    0.2854 C   0  0  0  0  0  0  0  0  0  0  0  0
   -3.8364    0.6527    1.4235 C   0  0  0  0  0  0  0  0  0  0  0  0
   -3.8479    1.1452   -0.9417 C   0  0  0  0  0  0  0  0  0  0  0  0
    0.7869   -3.3021    0.9282 C   0  0  0  0  0  0  0  0  0  0  0  0
   -4.5243    1.0406    0.2737 C   0  0  0  0  0  0  0  0  0  0  0  0
   -0.3315   -3.2655   -1.1704 C   0  0  0  0  0  0  0  0  0  0  0  0
    0.3276   -3.9893   -0.1898 C   0  0  0  0  0  0  0  0  0  0  0  0
    0.0658    0.5329    1.0288 H   0  0  0  0  0  0  0  0  0  0  0  0
    0.0518    0.6762   -2.0198 H   0  0  0  0  0  0  0  0  0  0  0  0
    0.1735    2.0519   -0.9494 H   0  0  0  0  0  0  0  0  0  0  0  0
    2.3702    1.2937   -1.8499 H   0  0  0  0  0  0  0  0  0  0  0  0
    2.0970   -0.3407   -1.2688 H   0  0  0  0  0  0  0  0  0  0  0  0
   -1.9450    0.0674    2.2577 H   0  0  0  0  0  0  0  0  0  0  0  0
   -2.0052    0.9364   -1.9760 H   0  0  0  0  0  0  0  0  0  0  0  0
    0.9305   -1.3879    1.8982 H   0  0  0  0  0  0  0  0  0  0  0  0
    1.2678    2.7412    0.7390 H   0  0  0  0  0  0  0  0  0  0  0  0
    2.6785    3.1251   -0.2828 H   0  0  0  0  0  0  0  0  0  0  0  0
    2.8561    2.7703    1.4418 H   0  0  0  0  0  0  0  0  0  0  0  0
    4.0548   -0.3550    0.1130 H   0  0  0  0  0  0  0  0  0  0  0  0
    4.3433    0.9329    1.2714 H   0  0  0  0  0  0  0  0  0  0  0  0
    4.4929    1.2668   -0.4683 H   0  0  0  0  0  0  0  0  0  0  0  0
   -4.3505    0.5665    2.3773 H   0  0  0  0  0  0  0  0  0  0  0  0
   -4.3727    1.4418   -1.8464 H   0  0  0  0  0  0  0  0  0  0  0  0
    1.3082   -3.8339    1.7187 H   0  0  0  0  0  0  0  0  0  0  0  0
   -0.7094   -3.7545   -2.0622 H   0  0  0  0  0  0  0  0  0  0  0  0
    0.4806   -5.0577   -0.2904 H   0  0  0  0  0  0  0  0  0  0  0  0
  1 17  1  0  0  0  0
  2  6  1  0  0  0  0
  2 12  1  0  0  0  0
  2 13  1  0  0  0  0
  3  8  2  0  0  0  0
  3 18  1  0  0  0  0
  4  5  1  0  0  0  0
  4  7  1  0  0  0  0
  4  8  1  0  0  0  0
  4 20  1  1  0  0  0
  5  6  1  0  0  0  0
  5 21  1  0  0  0  0
  5 22  1  0  0  0  0
  6 23  1  0  0  0  0
  6 24  1  0  0  0  0
  7  9  2  0  0  0  0
  7 10  1  0  0  0  0
  8 11  1  0  0  0  0
  9 14  1  0  0  0  0
  9 25  1  0  0  0  0
 10 15  2  0  0  0  0
 10 26  1  0  0  0  0
 11 16  2  0  0  0  0
 11 27  1  0  0  0  0
 12 28  1  0  0  0  0
 12 29  1  0  0  0  0
 12 30  1  0  0  0  0
 13 31  1  0  0  0  0
 13 32  1  0  0  0  0
 13 33  1  0  0  0  0
 14 17  2  0  0  0  0
 14 34  1  0  0  0  0
 15 17  1  0  0  0  0
 15 35  1  0  0  0  0
 16 19  1  0  0  0  0
 16 36  1  0  0  0  0
 18 19  2  0  0  0  0
 18 37  1  0  0  0  0
 19 38  1  0  0  0  0
M  END
