DB01095
 OpenBabel07062211533D

 56 58  0  0  1  0  0  0  0  0999 V2000
   -2.6326   -5.0235   -0.4261 F   0  0  0  0  0  0  0  0  0  0  0  0
   -1.6799    3.6157    0.1947 O   0  0  0  0  0  0  0  0  0  0  0  0
   -3.5657    0.2077   -1.4588 O   0  0  0  0  0  0  0  0  0  0  0  0
   -6.6920    1.0346    1.2747 O   0  0  0  0  0  0  0  0  0  0  0  0
   -6.3440    0.8231   -0.9596 O   0  0  0  0  0  0  0  0  0  0  0  0
    2.4329    0.7442   -0.1815 N   0  0  0  0  0  0  0  0  0  0  0  0
    2.6670    2.1669   -0.3464 C   0  0  0  0  0  0  0  0  0  0  0  0
    1.2530    0.0920   -0.3447 C   0  0  1  0  0  0  0  0  0  0  0  0
    3.4082   -0.1599    0.1741 C   0  0  0  0  0  0  0  0  0  0  0  0
    1.4308   -1.2346   -0.1022 C   0  0  0  0  0  0  0  0  0  0  0  0
    2.8021   -1.4168    0.2312 C   0  0  0  0  0  0  0  0  0  0  0  0
    0.1026    0.8594   -0.7171 C   0  0  0  0  0  0  0  0  0  0  0  0
    3.6494    2.4572   -1.4826 C   0  0  0  0  0  0  0  0  0  0  0  0
    3.1047    2.8301    0.9609 C   0  0  0  0  0  0  0  0  0  0  0  0
    0.3813   -2.2133   -0.1858 C   0  0  0  0  0  0  0  0  0  0  0  0
    4.7666    0.0366    0.4468 C   0  0  0  0  0  0  0  0  0  0  0  0
    3.5884   -2.5337    0.5773 C   0  0  0  0  0  0  0  0  0  0  0  0
   -1.9077    2.2808   -0.2504 C   0  0  2  0  0  0  0  0  0  0  0  0
   -3.1918    1.7231    0.3861 C   0  0  0  0  0  0  0  0  0  0  0  0
   -0.7135    1.4622    0.1627 C   0  0  0  0  0  0  0  0  0  0  0  0
   -3.5047    0.2794   -0.0364 C   0  0  1  0  0  0  0  0  0  0  0  0
    5.5264   -1.0859    0.7879 C   0  0  0  0  0  0  0  0  0  0  0  0
    4.9485   -2.3522    0.8528 C   0  0  0  0  0  0  0  0  0  0  0  0
   -0.3866   -2.5082    0.9398 C   0  0  0  0  0  0  0  0  0  0  0  0
    0.1329   -2.8660   -1.3924 C   0  0  0  0  0  0  0  0  0  0  0  0
   -4.8071   -0.2535    0.5649 C   0  0  0  0  0  0  0  0  0  0  0  0
   -1.4051   -3.4579    0.8585 C   0  0  0  0  0  0  0  0  0  0  0  0
   -0.8856   -3.8156   -1.4736 C   0  0  0  0  0  0  0  0  0  0  0  0
   -1.6545   -4.1115   -0.3482 C   0  0  0  0  0  0  0  0  0  0  0  0
   -6.0158    0.5739    0.1934 C   0  0  0  0  0  0  0  0  0  0  0  0
    1.7264    2.6449   -0.6347 H   0  0  0  0  0  0  0  0  0  0  0  0
   -0.1041    0.9379   -1.7815 H   0  0  0  0  0  0  0  0  0  0  0  0
    3.6564    3.5307   -1.7041 H   0  0  0  0  0  0  0  0  0  0  0  0
    3.3517    1.9343   -2.3986 H   0  0  0  0  0  0  0  0  0  0  0  0
    4.6803    2.1765   -1.2600 H   0  0  0  0  0  0  0  0  0  0  0  0
    2.4198    2.5729    1.7767 H   0  0  0  0  0  0  0  0  0  0  0  0
    3.0881    3.9204    0.8491 H   0  0  0  0  0  0  0  0  0  0  0  0
    4.1142    2.5628    1.2776 H   0  0  0  0  0  0  0  0  0  0  0  0
    5.2536    1.0013    0.4078 H   0  0  0  0  0  0  0  0  0  0  0  0
    3.1534   -3.5276    0.6324 H   0  0  0  0  0  0  0  0  0  0  0  0
   -2.0059    2.3150   -1.3414 H   0  0  0  0  0  0  0  0  0  0  0  0
   -3.1330    1.7917    1.4803 H   0  0  0  0  0  0  0  0  0  0  0  0
   -4.0131    2.3883    0.0895 H   0  0  0  0  0  0  0  0  0  0  0  0
   -0.5081    1.3853    1.2285 H   0  0  0  0  0  0  0  0  0  0  0  0
   -2.6933   -0.3819    0.2852 H   0  0  0  0  0  0  0  0  0  0  0  0
    6.5850   -0.9683    1.0058 H   0  0  0  0  0  0  0  0  0  0  0  0
    5.5599   -3.2101    1.1202 H   0  0  0  0  0  0  0  0  0  0  0  0
   -0.2060   -2.0068    1.8878 H   0  0  0  0  0  0  0  0  0  0  0  0
    0.7231   -2.6471   -2.2791 H   0  0  0  0  0  0  0  0  0  0  0  0
   -5.0053   -1.2748    0.2195 H   0  0  0  0  0  0  0  0  0  0  0  0
   -4.7182   -0.2898    1.6570 H   0  0  0  0  0  0  0  0  0  0  0  0
   -2.0048   -3.6876    1.7342 H   0  0  0  0  0  0  0  0  0  0  0  0
   -1.0802   -4.3247   -2.4129 H   0  0  0  0  0  0  0  0  0  0  0  0
   -2.4560    4.1446   -0.0578 H   0  0  0  0  0  0  0  0  0  0  0  0
   -3.7256   -0.7208   -1.6991 H   0  0  0  0  0  0  0  0  0  0  0  0
   -7.4666    1.5787    1.0176 H   0  0  0  0  0  0  0  0  0  0  0  0
  1 29  1  0  0  0  0
  2 18  1  0  0  0  0
  2 54  1  0  0  0  0
  3 21  1  0  0  0  0
  3 55  1  0  0  0  0
  4 30  1  0  0  0  0
  4 56  1  0  0  0  0
  5 30  2  0  0  0  0
  6  7  1  0  0  0  0
  6  8  1  0  0  0  0
  6  9  2  0  0  0  0
  7 13  1  0  0  0  0
  7 14  1  0  0  0  0
  7 31  1  0  0  0  0
  8 10  1  0  0  0  0
  8 12  1  1  0  0  0
  9 11  1  0  0  0  0
  9 16  1  0  0  0  0
 10 11  2  0  0  0  0
 10 15  1  0  0  0  0
 11 17  1  0  0  0  0
 12 20  2  0  0  0  0
 12 32  1  0  0  0  0
 13 33  1  0  0  0  0
 13 34  1  0  0  0  0
 13 35  1  0  0  0  0
 14 36  1  0  0  0  0
 14 37  1  0  0  0  0
 14 38  1  0  0  0  0
 15 24  2  0  0  0  0
 15 25  1  0  0  0  0
 16 22  2  0  0  0  0
 16 39  1  0  0  0  0
 17 23  2  0  0  0  0
 17 40  1  0  0  0  0
 18 19  1  0  0  0  0
 18 20  1  0  0  0  0
 18 41  1  6  0  0  0
 19 21  1  0  0  0  0
 19 42  1  0  0  0  0
 19 43  1  0  0  0  0
 20 44  1  0  0  0  0
 21 26  1  0  0  0  0
 21 45  1  1  0  0  0
 22 23  1  0  0  0  0
 22 46  1  0  0  0  0
 23 47  1  0  0  0  0
 24 27  1  0  0  0  0
 24 48  1  0  0  0  0
 25 28  2  0  0  0  0
 25 49  1  0  0  0  0
 26 30  1  0  0  0  0
 26 50  1  0  0  0  0
 26 51  1  0  0  0  0
 27 29  2  0  0  0  0
 27 52  1  0  0  0  0
 28 29  1  0  0  0  0
 28 53  1  0  0  0  0
M  END
