DB01196
 OpenBabel07062211533D

 60 63  0  0  1  0  0  0  0  0999 V2000
   -7.7395    2.8263    1.6596 Cl  0  0  0  0  0  0  0  0  0  0  0  0
   -8.0351   -2.9397   -2.3673 Cl  0  0  0  0  0  0  0  0  0  0  0  0
    6.8945   -1.5720   -0.2826 O   0  0  0  0  0  0  0  0  0  0  0  0
   -3.8543    0.3062    0.8102 O   0  0  0  0  0  0  0  0  0  0  0  0
   -3.8358   -0.9371   -1.1411 O   0  0  0  0  0  0  0  0  0  0  0  0
   -5.8740   -0.2041   -0.2936 N   0  0  0  0  0  0  0  0  0  0  0  0
    4.5721   -0.7815   -0.0317 C   0  0  1  0  0  0  0  0  0  0  0  0
    4.0314    0.6595    0.0610 C   0  0  2  0  0  0  0  0  0  0  0  0
    2.5162    0.7205   -0.1294 C   0  0  1  0  0  0  0  0  0  0  0  0
    1.8371   -0.1047    1.0056 C   0  0  2  0  0  0  0  0  0  0  0  0
    6.0771   -0.4932    0.1286 C   0  0  2  0  0  0  0  0  0  0  0  0
    3.9474   -1.5997    1.1050 C   0  0  0  0  0  0  0  0  0  0  0  0
    4.9363    1.4404   -0.8876 C   0  0  0  0  0  0  0  0  0  0  0  0
    2.4078   -1.5470    1.0701 C   0  0  0  0  0  0  0  0  0  0  0  0
    6.3101    0.7621   -0.7346 C   0  0  0  0  0  0  0  0  0  0  0  0
    1.9765    2.1516   -0.0949 C   0  0  0  0  0  0  0  0  0  0  0  0
    4.3007   -1.4919   -1.3825 C   0  0  0  0  0  0  0  0  0  0  0  0
    0.3157   -0.0138    0.9213 C   0  0  0  0  0  0  0  0  0  0  0  0
    0.4886    2.1521   -0.4324 C   0  0  0  0  0  0  0  0  0  0  0  0
   -0.3026    1.0796    0.2757 C   0  0  0  0  0  0  0  0  0  0  0  0
   -0.5061   -0.9616    1.5566 C   0  0  0  0  0  0  0  0  0  0  0  0
   -1.7054    1.1676    0.2360 C   0  0  0  0  0  0  0  0  0  0  0  0
   -1.8982   -0.8571    1.5171 C   0  0  0  0  0  0  0  0  0  0  0  0
   -2.4983    0.2046    0.8529 C   0  0  0  0  0  0  0  0  0  0  0  0
   -4.4806   -0.3315   -0.2857 C   0  0  0  0  0  0  0  0  0  0  0  0
   -6.6295    0.5135    0.7279 C   0  0  0  0  0  0  0  0  0  0  0  0
   -6.6579   -0.8088   -1.3612 C   0  0  0  0  0  0  0  0  0  0  0  0
   -6.8194    1.9825    0.3895 C   0  0  0  0  0  0  0  0  0  0  0  0
   -7.0843   -2.2311   -1.0386 C   0  0  0  0  0  0  0  0  0  0  0  0
    4.2422    1.0492    1.0712 H   0  0  0  0  0  0  0  0  0  0  0  0
    2.2515    0.2922   -1.1049 H   0  0  0  0  0  0  0  0  0  0  0  0
    2.0966    0.3723    1.9636 H   0  0  0  0  0  0  0  0  0  0  0  0
    6.3171   -0.2678    1.1755 H   0  0  0  0  0  0  0  0  0  0  0  0
    4.2815   -2.6431    1.0610 H   0  0  0  0  0  0  0  0  0  0  0  0
    4.2839   -1.2098    2.0747 H   0  0  0  0  0  0  0  0  0  0  0  0
    4.5885    1.3704   -1.9241 H   0  0  0  0  0  0  0  0  0  0  0  0
    4.9865    2.5022   -0.6257 H   0  0  0  0  0  0  0  0  0  0  0  0
    2.0503   -2.0555    1.9729 H   0  0  0  0  0  0  0  0  0  0  0  0
    2.0324   -2.1324    0.2222 H   0  0  0  0  0  0  0  0  0  0  0  0
    7.0222    1.4313   -0.2386 H   0  0  0  0  0  0  0  0  0  0  0  0
    6.7340    0.5162   -1.7147 H   0  0  0  0  0  0  0  0  0  0  0  0
    2.1344    2.5895    0.8992 H   0  0  0  0  0  0  0  0  0  0  0  0
    2.5016    2.7920   -0.8122 H   0  0  0  0  0  0  0  0  0  0  0  0
    4.7163   -2.5064   -1.3746 H   0  0  0  0  0  0  0  0  0  0  0  0
    3.2344   -1.5908   -1.6020 H   0  0  0  0  0  0  0  0  0  0  0  0
    4.7526   -0.9668   -2.2299 H   0  0  0  0  0  0  0  0  0  0  0  0
    0.3677    2.0003   -1.5128 H   0  0  0  0  0  0  0  0  0  0  0  0
    0.0754    3.1390   -0.1910 H   0  0  0  0  0  0  0  0  0  0  0  0
    7.8186   -1.2742   -0.2307 H   0  0  0  0  0  0  0  0  0  0  0  0
   -0.0811   -1.7983    2.1028 H   0  0  0  0  0  0  0  0  0  0  0  0
   -2.1801    1.9994   -0.2806 H   0  0  0  0  0  0  0  0  0  0  0  0
   -2.5058   -1.6094    2.0130 H   0  0  0  0  0  0  0  0  0  0  0  0
   -6.0967    0.4255    1.6818 H   0  0  0  0  0  0  0  0  0  0  0  0
   -7.5972    0.0160    0.8642 H   0  0  0  0  0  0  0  0  0  0  0  0
   -6.0507   -0.8141   -2.2748 H   0  0  0  0  0  0  0  0  0  0  0  0
   -7.5284   -0.1740   -1.5650 H   0  0  0  0  0  0  0  0  0  0  0  0
   -7.3656    2.1048   -0.5507 H   0  0  0  0  0  0  0  0  0  0  0  0
   -5.8552    2.4901    0.2852 H   0  0  0  0  0  0  0  0  0  0  0  0
   -7.7025   -2.2643   -0.1362 H   0  0  0  0  0  0  0  0  0  0  0  0
   -6.2148   -2.8748   -0.8725 H   0  0  0  0  0  0  0  0  0  0  0  0
  1 28  1  0  0  0  0
  2 29  1  0  0  0  0
  3 11  1  0  0  0  0
  3 49  1  0  0  0  0
  4 24  1  0  0  0  0
  4 25  1  0  0  0  0
  5 25  2  0  0  0  0
  6 25  1  0  0  0  0
  6 26  1  0  0  0  0
  6 27  1  0  0  0  0
  7  8  1  6  0  0  0
  7 12  1  0  0  0  0
  7 17  1  0  0  0  0
  8  9  1  6  0  0  0
  8 13  1  0  0  0  0
  8 30  1  0  0  0  0
  9 10  1  1  0  0  0
  9 16  1  0  0  0  0
  9 31  1  0  0  0  0
 10 14  1  0  0  0  0
 10 18  1  0  0  0  0
 10 32  1  1  0  0  0
 11  7  1  6  0  0  0
 11 15  1  0  0  0  0
 11 33  1  0  0  0  0
 12 14  1  0  0  0  0
 12 34  1  0  0  0  0
 12 35  1  0  0  0  0
 13 15  1  0  0  0  0
 13 36  1  0  0  0  0
 13 37  1  0  0  0  0
 14 38  1  0  0  0  0
 14 39  1  0  0  0  0
 15 40  1  0  0  0  0
 15 41  1  0  0  0  0
 16 19  1  0  0  0  0
 16 42  1  0  0  0  0
 16 43  1  0  0  0  0
 17 44  1  0  0  0  0
 17 45  1  0  0  0  0
 17 46  1  0  0  0  0
 18 20  2  0  0  0  0
 18 21  1  0  0  0  0
 19 20  1  0  0  0  0
 19 47  1  0  0  0  0
 19 48  1  0  0  0  0
 20 22  1  0  0  0  0
 21 23  2  0  0  0  0
 21 50  1  0  0  0  0
 22 24  2  0  0  0  0
 22 51  1  0  0  0  0
 23 24  1  0  0  0  0
 23 52  1  0  0  0  0
 26 28  1  0  0  0  0
 26 53  1  0  0  0  0
 26 54  1  0  0  0  0
 27 29  1  0  0  0  0
 27 55  1  0  0  0  0
 27 56  1  0  0  0  0
 28 57  1  0  0  0  0
 28 58  1  0  0  0  0
 29 59  1  0  0  0  0
 29 60  1  0  0  0  0
M  END
