DB01623
 OpenBabel07062211533D

 59 62  0  0  0  0  0  0  0  0999 V2000
   -0.0092    3.5363   -1.5267 S   0  0  0  0  0  0  0  0  0  0  0  0
    4.7907    0.8453    1.6103 S   0  0  0  0  0  0  0  0  0  0  0  0
    0.3516    4.9293   -1.7667 O   0  0  0  0  0  0  0  0  0  0  0  0
   -0.3473    2.6988   -2.6724 O   0  0  0  0  0  0  0  0  0  0  0  0
   -2.0295   -1.5486    0.4776 N   0  0  0  0  0  0  0  0  0  0  0  0
   -4.8351   -1.8156   -0.1675 N   0  0  0  0  0  0  0  0  0  0  0  0
   -1.3163    3.4866   -0.3946 N   0  0  0  0  0  0  0  0  0  0  0  0
   -2.5046   -1.4582   -0.9085 C   0  0  0  0  0  0  0  0  0  0  0  0
   -2.9140   -2.4147    1.2666 C   0  0  0  0  0  0  0  0  0  0  0  0
   -3.9501   -0.9512   -0.9578 C   0  0  0  0  0  0  0  0  0  0  0  0
   -4.3591   -1.9068    1.2183 C   0  0  0  0  0  0  0  0  0  0  0  0
   -0.6516   -2.0341    0.5234 C   0  0  0  0  0  0  0  0  0  0  0  0
    0.2762   -1.0641   -0.2071 C   0  0  0  0  0  0  0  0  0  0  0  0
   -6.2123   -1.3283   -0.2124 C   0  0  0  0  0  0  0  0  0  0  0  0
    1.6942   -1.5358   -0.1522 C   0  0  0  0  0  0  0  0  0  0  0  0
    2.7575   -0.7085   -0.1435 C   0  0  0  0  0  0  0  0  0  0  0  0
    2.5313    0.7593   -0.0543 C   0  0  0  0  0  0  0  0  0  0  0  0
    4.1256   -1.2900   -0.0872 C   0  0  0  0  0  0  0  0  0  0  0  0
    3.4117    1.5477    0.7107 C   0  0  0  0  0  0  0  0  0  0  0  0
    1.4883    1.3935   -0.7520 C   0  0  0  0  0  0  0  0  0  0  0  0
    5.1184   -0.6456    0.6753 C   0  0  0  0  0  0  0  0  0  0  0  0
    1.3035    2.7742   -0.6632 C   0  0  0  0  0  0  0  0  0  0  0  0
    3.2132    2.9337    0.7985 C   0  0  0  0  0  0  0  0  0  0  0  0
    4.4731   -2.4426   -0.8137 C   0  0  0  0  0  0  0  0  0  0  0  0
    2.1617    3.5426    0.1154 C   0  0  0  0  0  0  0  0  0  0  0  0
    6.4142   -1.1803    0.7321 C   0  0  0  0  0  0  0  0  0  0  0  0
    5.7670   -2.9624   -0.7558 C   0  0  0  0  0  0  0  0  0  0  0  0
    6.7351   -2.3347    0.0204 C   0  0  0  0  0  0  0  0  0  0  0  0
   -1.7634    2.1525    0.0803 C   0  0  0  0  0  0  0  0  0  0  0  0
   -1.3177    4.4939    0.6967 C   0  0  0  0  0  0  0  0  0  0  0  0
   -2.4381   -2.4330   -1.4108 H   0  0  0  0  0  0  0  0  0  0  0  0
   -1.9280   -0.7443   -1.5013 H   0  0  0  0  0  0  0  0  0  0  0  0
   -2.5879   -2.4231    2.3137 H   0  0  0  0  0  0  0  0  0  0  0  0
   -2.8745   -3.4508    0.9035 H   0  0  0  0  0  0  0  0  0  0  0  0
   -3.9941    0.0849   -0.5973 H   0  0  0  0  0  0  0  0  0  0  0  0
   -4.2782   -0.9458   -2.0045 H   0  0  0  0  0  0  0  0  0  0  0  0
   -4.9893   -2.6059    1.7813 H   0  0  0  0  0  0  0  0  0  0  0  0
   -4.4242   -0.9315    1.7197 H   0  0  0  0  0  0  0  0  0  0  0  0
   -0.5748   -3.0397    0.0876 H   0  0  0  0  0  0  0  0  0  0  0  0
   -0.3262   -2.1125    1.5695 H   0  0  0  0  0  0  0  0  0  0  0  0
    0.0123   -1.0110   -1.2657 H   0  0  0  0  0  0  0  0  0  0  0  0
    0.1137   -0.1184    0.3083 H   0  0  0  0  0  0  0  0  0  0  0  0
   -6.5780   -1.3050   -1.2449 H   0  0  0  0  0  0  0  0  0  0  0  0
   -6.3106   -0.3223    0.2110 H   0  0  0  0  0  0  0  0  0  0  0  0
   -6.8764   -2.0016    0.3409 H   0  0  0  0  0  0  0  0  0  0  0  0
    1.8353   -2.6143   -0.1697 H   0  0  0  0  0  0  0  0  0  0  0  0
    0.8844    0.8591   -1.4757 H   0  0  0  0  0  0  0  0  0  0  0  0
    3.8758    3.5559    1.3961 H   0  0  0  0  0  0  0  0  0  0  0  0
    3.7467   -2.9486   -1.4454 H   0  0  0  0  0  0  0  0  0  0  0  0
    2.0321    4.6173    0.2066 H   0  0  0  0  0  0  0  0  0  0  0  0
    7.1902   -0.7018    1.3257 H   0  0  0  0  0  0  0  0  0  0  0  0
    6.0182   -3.8557   -1.3205 H   0  0  0  0  0  0  0  0  0  0  0  0
    7.7418   -2.7393    0.0666 H   0  0  0  0  0  0  0  0  0  0  0  0
   -1.7341    1.4322   -0.7383 H   0  0  0  0  0  0  0  0  0  0  0  0
   -2.8018    2.2173    0.4197 H   0  0  0  0  0  0  0  0  0  0  0  0
   -1.1426    1.8047    0.9097 H   0  0  0  0  0  0  0  0  0  0  0  0
   -1.1466    5.4960    0.2948 H   0  0  0  0  0  0  0  0  0  0  0  0
   -0.5525    4.2597    1.4416 H   0  0  0  0  0  0  0  0  0  0  0  0
   -2.2960    4.5055    1.1878 H   0  0  0  0  0  0  0  0  0  0  0  0
  1  3  2  0  0  0  0
  1  4  2  0  0  0  0
  1  7  1  0  0  0  0
  1 22  1  0  0  0  0
  2 19  1  0  0  0  0
  2 21  1  0  0  0  0
  5  8  1  0  0  0  0
  5  9  1  0  0  0  0
  5 12  1  0  0  0  0
  6 10  1  0  0  0  0
  6 11  1  0  0  0  0
  6 14  1  0  0  0  0
  7 29  1  0  0  0  0
  7 30  1  0  0  0  0
  8 10  1  0  0  0  0
  8 31  1  0  0  0  0
  8 32  1  0  0  0  0
  9 11  1  0  0  0  0
  9 33  1  0  0  0  0
  9 34  1  0  0  0  0
 10 35  1  0  0  0  0
 10 36  1  0  0  0  0
 11 37  1  0  0  0  0
 11 38  1  0  0  0  0
 12 13  1  0  0  0  0
 12 39  1  0  0  0  0
 12 40  1  0  0  0  0
 13 15  1  0  0  0  0
 13 41  1  0  0  0  0
 13 42  1  0  0  0  0
 14 43  1  0  0  0  0
 14 44  1  0  0  0  0
 14 45  1  0  0  0  0
 15 16  2  0  0  0  0
 15 46  1  0  0  0  0
 16 17  1  0  0  0  0
 16 18  1  0  0  0  0
 17 19  2  0  0  0  0
 17 20  1  0  0  0  0
 18 21  2  0  0  0  0
 18 24  1  0  0  0  0
 19 23  1  0  0  0  0
 20 22  2  0  0  0  0
 20 47  1  0  0  0  0
 21 26  1  0  0  0  0
 22 25  1  0  0  0  0
 23 25  2  0  0  0  0
 23 48  1  0  0  0  0
 24 27  2  0  0  0  0
 24 49  1  0  0  0  0
 25 50  1  0  0  0  0
 26 28  2  0  0  0  0
 26 51  1  0  0  0  0
 27 28  1  0  0  0  0
 27 52  1  0  0  0  0
 28 53  1  0  0  0  0
 29 54  1  0  0  0  0
 29 55  1  0  0  0  0
 29 56  1  0  0  0  0
 30 57  1  0  0  0  0
 30 58  1  0  0  0  0
 30 59  1  0  0  0  0
M  END
