DB01188
 OpenBabel07062211533D

 32 33  0  0  0  0  0  0  0  0999 V2000
   -0.7002    2.8706   -0.3125 O   0  0  0  0  0  0  0  0  0  0  0  0
   -3.4376    2.8783   -0.2253 O   0  0  0  0  0  0  0  0  0  0  0  0
   -1.4470    1.6908   -0.1713 N   0  0  0  0  0  0  0  0  0  0  0  0
    0.7604    0.5622   -0.0637 C   0  0  0  0  0  0  0  0  0  0  0  0
    1.3288   -0.1959   -1.2719 C   0  0  0  0  0  0  0  0  0  0  0  0
    1.3256   -0.0012    1.2479 C   0  0  0  0  0  0  0  0  0  0  0  0
    2.8562   -0.2026   -1.2669 C   0  0  0  0  0  0  0  0  0  0  0  0
    2.8530   -0.0088    1.2475 C   0  0  0  0  0  0  0  0  0  0  0  0
    3.4120   -0.7560    0.0411 C   0  0  0  0  0  0  0  0  0  0  0  0
   -0.7383    0.5160   -0.0624 C   0  0  0  0  0  0  0  0  0  0  0  0
   -1.4267   -0.6357    0.0257 C   0  0  0  0  0  0  0  0  0  0  0  0
   -2.8794   -0.6312    0.0139 C   0  0  0  0  0  0  0  0  0  0  0  0
   -2.8168    1.8209   -0.1551 C   0  0  0  0  0  0  0  0  0  0  0  0
   -3.5570    0.5265   -0.0708 C   0  0  0  0  0  0  0  0  0  0  0  0
   -3.5620   -1.9616    0.1025 C   0  0  0  0  0  0  0  0  0  0  0  0
    1.1314    1.5907   -0.1408 H   0  0  0  0  0  0  0  0  0  0  0  0
    0.9761    0.2638   -2.2039 H   0  0  0  0  0  0  0  0  0  0  0  0
    0.9812   -1.2368   -1.2834 H   0  0  0  0  0  0  0  0  0  0  0  0
    0.9777   -1.0279    1.4184 H   0  0  0  0  0  0  0  0  0  0  0  0
    0.9708    0.5963    2.0971 H   0  0  0  0  0  0  0  0  0  0  0  0
    3.2261    0.8190   -1.4182 H   0  0  0  0  0  0  0  0  0  0  0  0
    3.2246   -0.8023   -2.1069 H   0  0  0  0  0  0  0  0  0  0  0  0
    3.2192   -0.4727    2.1703 H   0  0  0  0  0  0  0  0  0  0  0  0
    3.2230    1.0239    1.2414 H   0  0  0  0  0  0  0  0  0  0  0  0
    3.1612   -1.8207    0.1228 H   0  0  0  0  0  0  0  0  0  0  0  0
    4.5054   -0.6847    0.0369 H   0  0  0  0  0  0  0  0  0  0  0  0
   -0.9272   -1.5956    0.1068 H   0  0  0  0  0  0  0  0  0  0  0  0
   -4.6404    0.5667   -0.0790 H   0  0  0  0  0  0  0  0  0  0  0  0
   -3.2891   -2.4737    1.0315 H   0  0  0  0  0  0  0  0  0  0  0  0
   -3.2763   -2.5981   -0.7419 H   0  0  0  0  0  0  0  0  0  0  0  0
   -4.6528   -1.8624    0.0875 H   0  0  0  0  0  0  0  0  0  0  0  0
   -0.7818    3.2422    0.5826 H   0  0  0  0  0  0  0  0  0  0  0  0
  1  3  1  0  0  0  0
  1 32  1  0  0  0  0
  2 13  2  0  0  0  0
  3 10  1  0  0  0  0
  3 13  1  0  0  0  0
  4  5  1  0  0  0  0
  4  6  1  0  0  0  0
  4 10  1  0  0  0  0
  4 16  1  0  0  0  0
  5  7  1  0  0  0  0
  5 17  1  0  0  0  0
  5 18  1  0  0  0  0
  6  8  1  0  0  0  0
  6 19  1  0  0  0  0
  6 20  1  0  0  0  0
  7  9  1  0  0  0  0
  7 21  1  0  0  0  0
  7 22  1  0  0  0  0
  8  9  1  0  0  0  0
  8 23  1  0  0  0  0
  8 24  1  0  0  0  0
  9 25  1  0  0  0  0
  9 26  1  0  0  0  0
 10 11  2  0  0  0  0
 11 12  1  0  0  0  0
 11 27  1  0  0  0  0
 12 14  2  0  0  0  0
 12 15  1  0  0  0  0
 13 14  1  0  0  0  0
 14 28  1  0  0  0  0
 15 29  1  0  0  0  0
 15 30  1  0  0  0  0
 15 31  1  0  0  0  0
M  END
