DB01068
 OpenBabel07062211533D

 32 34  0  0  0  0  0  0  0  0999 V2000
    1.2582   -1.6362    2.3973 Cl  0  0  0  0  0  0  0  0  0  0  0  0
   -2.2838   -3.9722    0.2602 O   0  0  0  0  0  0  0  0  0  0  0  0
   -2.1039    4.5721    0.0420 O   0  0  0  0  0  0  0  0  0  0  0  0
   -0.1943    4.0409   -0.9014 O   0  0  0  0  0  0  0  0  0  0  0  0
   -2.4307   -1.7129    0.6020 N   0  0  0  0  0  0  0  0  0  0  0  0
    0.1281   -2.1336   -0.9457 N   0  0  0  0  0  0  0  0  0  0  0  0
   -1.2612    3.7181   -0.3254 N   0  0  0  0  0  0  0  0  0  0  0  0
   -0.8299    0.0175   -0.2012 C   0  0  0  0  0  0  0  0  0  0  0  0
   -2.0486   -0.3740    0.3771 C   0  0  0  0  0  0  0  0  0  0  0  0
    0.2798   -0.9524   -0.4513 C   0  0  0  0  0  0  0  0  0  0  0  0
    1.6693   -0.5613   -0.0766 C   0  0  0  0  0  0  0  0  0  0  0  0
   -0.5883    1.3783   -0.4530 C   0  0  0  0  0  0  0  0  0  0  0  0
   -2.9569    0.6123    0.7903 C   0  0  0  0  0  0  0  0  0  0  0  0
   -1.1963   -2.5672   -1.3339 C   0  0  0  0  0  0  0  0  0  0  0  0
   -1.5230    2.3439   -0.0814 C   0  0  0  0  0  0  0  0  0  0  0  0
   -1.9897   -2.8256   -0.0808 C   0  0  0  0  0  0  0  0  0  0  0  0
   -2.6988    1.9626    0.5559 C   0  0  0  0  0  0  0  0  0  0  0  0
    2.1887   -0.8318    1.1848 C   0  0  0  0  0  0  0  0  0  0  0  0
    2.4403    0.0888   -1.0348 C   0  0  0  0  0  0  0  0  0  0  0  0
    3.4940   -0.4479    1.4920 C   0  0  0  0  0  0  0  0  0  0  0  0
    3.7457    0.4727   -0.7275 C   0  0  0  0  0  0  0  0  0  0  0  0
    4.2725    0.2044    0.5359 C   0  0  0  0  0  0  0  0  0  0  0  0
    0.3362    1.6844   -0.9309 H   0  0  0  0  0  0  0  0  0  0  0  0
   -3.1565   -1.8674    1.2974 H   0  0  0  0  0  0  0  0  0  0  0  0
   -3.8931    0.3348    1.2703 H   0  0  0  0  0  0  0  0  0  0  0  0
   -1.1149   -3.5059   -1.8927 H   0  0  0  0  0  0  0  0  0  0  0  0
   -1.7080   -1.8559   -1.9925 H   0  0  0  0  0  0  0  0  0  0  0  0
   -3.4433    2.6867    0.8765 H   0  0  0  0  0  0  0  0  0  0  0  0
    2.0472    0.2947   -2.0268 H   0  0  0  0  0  0  0  0  0  0  0  0
    3.9195   -0.6494    2.4718 H   0  0  0  0  0  0  0  0  0  0  0  0
    4.3528    0.9785   -1.4726 H   0  0  0  0  0  0  0  0  0  0  0  0
    5.2890    0.5029    0.7749 H   0  0  0  0  0  0  0  0  0  0  0  0
  1 18  1  0  0  0  0
  2 16  2  0  0  0  0
  3  7  1  0  0  0  0
  4  7  2  0  0  0  0
  5  9  1  0  0  0  0
  5 16  1  0  0  0  0
  5 24  1  0  0  0  0
  6 10  2  0  0  0  0
  6 14  1  0  0  0  0
  7 15  1  0  0  0  0
  8  9  2  0  0  0  0
  8 10  1  0  0  0  0
  8 12  1  0  0  0  0
  9 13  1  0  0  0  0
 10 11  1  0  0  0  0
 11 18  2  0  0  0  0
 11 19  1  0  0  0  0
 12 15  2  0  0  0  0
 12 23  1  0  0  0  0
 13 17  2  0  0  0  0
 13 25  1  0  0  0  0
 14 16  1  0  0  0  0
 14 26  1  0  0  0  0
 14 27  1  0  0  0  0
 15 17  1  0  0  0  0
 17 28  1  0  0  0  0
 18 20  1  0  0  0  0
 19 21  2  0  0  0  0
 19 29  1  0  0  0  0
 20 22  2  0  0  0  0
 20 30  1  0  0  0  0
 21 22  1  0  0  0  0
 21 31  1  0  0  0  0
 22 32  1  0  0  0  0
M  END
