DB01400
 OpenBabel07062211533D

 35 35  0  0  0  0  0  0  0  0999 V2000
   -1.8728   -0.5079    0.6985 O   0  0  0  0  0  0  0  0  0  0  0  0
   -2.2301   -0.2222   -1.5697 O   0  0  0  0  0  0  0  0  0  0  0  0
    2.8034    0.5618    0.0015 N   0  3  0  0  0  0  0  0  0  0  0  0
   -3.9589    0.2560   -0.0891 N   0  0  0  0  0  0  0  0  0  0  0  0
    1.6665   -0.4608    0.0706 C   0  0  0  0  0  0  0  0  0  0  0  0
    3.4142    0.5225   -1.3964 C   0  0  0  0  0  0  0  0  0  0  0  0
    3.8453    0.2097    1.0596 C   0  0  0  0  0  0  0  0  0  0  0  0
    2.3171    1.9847    0.2686 C   0  0  0  0  0  0  0  0  0  0  0  0
    0.4305    0.0149    0.3555 C   0  0  0  0  0  0  0  0  0  0  0  0
    1.9917   -1.7553   -0.1604 C   0  0  0  0  0  0  0  0  0  0  0  0
   -0.6056   -0.9169    0.4171 C   0  0  0  0  0  0  0  0  0  0  0  0
    0.9555   -2.6870   -0.0988 C   0  0  0  0  0  0  0  0  0  0  0  0
   -0.3431   -2.2678    0.1900 C   0  0  0  0  0  0  0  0  0  0  0  0
   -2.6641   -0.1586   -0.4200 C   0  0  0  0  0  0  0  0  0  0  0  0
   -4.8917    0.6480   -1.1362 C   0  0  0  0  0  0  0  0  0  0  0  0
   -4.4652    0.3244    1.2779 C   0  0  0  0  0  0  0  0  0  0  0  0
    2.6221    0.7013   -2.1305 H   0  0  0  0  0  0  0  0  0  0  0  0
    4.1694    1.3128   -1.4590 H   0  0  0  0  0  0  0  0  0  0  0  0
    3.8970   -0.4436   -1.5666 H   0  0  0  0  0  0  0  0  0  0  0  0
    4.3113   -0.7500    0.8198 H   0  0  0  0  0  0  0  0  0  0  0  0
    4.6133    0.9899    1.0526 H   0  0  0  0  0  0  0  0  0  0  0  0
    3.3542    0.1745    2.0374 H   0  0  0  0  0  0  0  0  0  0  0  0
    1.9148    2.0521    1.2847 H   0  0  0  0  0  0  0  0  0  0  0  0
    3.1844    2.6514    0.1984 H   0  0  0  0  0  0  0  0  0  0  0  0
    1.5957    2.2780   -0.5012 H   0  0  0  0  0  0  0  0  0  0  0  0
    0.1639    1.0458    0.5419 H   0  0  0  0  0  0  0  0  0  0  0  0
    2.9914   -2.1061   -0.3853 H   0  0  0  0  0  0  0  0  0  0  0  0
    1.1597   -3.7391   -0.2753 H   0  0  0  0  0  0  0  0  0  0  0  0
   -1.1457   -2.9989    0.2368 H   0  0  0  0  0  0  0  0  0  0  0  0
   -4.4406    0.5716   -2.1287 H   0  0  0  0  0  0  0  0  0  0  0  0
   -5.1994    1.6834   -0.9640 H   0  0  0  0  0  0  0  0  0  0  0  0
   -5.7665   -0.0069   -1.0915 H   0  0  0  0  0  0  0  0  0  0  0  0
   -5.3338   -0.3352    1.3621 H   0  0  0  0  0  0  0  0  0  0  0  0
   -4.7669    1.3546    1.4877 H   0  0  0  0  0  0  0  0  0  0  0  0
   -3.7170    0.0188    2.0118 H   0  0  0  0  0  0  0  0  0  0  0  0
  1 11  1  0  0  0  0
  1 14  1  0  0  0  0
  2 14  2  0  0  0  0
  3  5  1  0  0  0  0
  3  6  1  0  0  0  0
  3  7  1  0  0  0  0
  3  8  1  0  0  0  0
  4 14  1  0  0  0  0
  4 15  1  0  0  0  0
  4 16  1  0  0  0  0
  5  9  2  0  0  0  0
  5 10  1  0  0  0  0
  6 17  1  0  0  0  0
  6 18  1  0  0  0  0
  6 19  1  0  0  0  0
  7 20  1  0  0  0  0
  7 21  1  0  0  0  0
  7 22  1  0  0  0  0
  8 23  1  0  0  0  0
  8 24  1  0  0  0  0
  8 25  1  0  0  0  0
  9 11  1  0  0  0  0
  9 26  1  0  0  0  0
 10 12  2  0  0  0  0
 10 27  1  0  0  0  0
 11 13  2  0  0  0  0
 12 13  1  0  0  0  0
 12 28  1  0  0  0  0
 13 29  1  0  0  0  0
 15 30  1  0  0  0  0
 15 31  1  0  0  0  0
 15 32  1  0  0  0  0
 16 33  1  0  0  0  0
 16 34  1  0  0  0  0
 16 35  1  0  0  0  0
M  CHG  1   3   1
M  END
