DB01839
 OpenBabel07062211533D

 13 12  0  0  1  0  0  0  0  0999 V2000
    0.0363    1.4761    0.4058 O   0  0  0  0  0  0  0  0  0  0  0  0
    2.2709   -0.0127   -0.2901 O   0  0  0  0  0  0  0  0  0  0  0  0
   -0.1135    0.2515   -0.3111 C   0  0  1  0  0  0  0  0  0  0  0  0
    1.0506   -0.6612    0.0523 C   0  0  0  0  0  0  0  0  0  0  0  0
   -1.4490   -0.3751    0.0597 C   0  0  0  0  0  0  0  0  0  0  0  0
   -0.0807    0.4931   -1.3792 H   0  0  0  0  0  0  0  0  0  0  0  0
    1.0783   -0.8697    1.1269 H   0  0  0  0  0  0  0  0  0  0  0  0
    0.9989   -1.6093   -0.4910 H   0  0  0  0  0  0  0  0  0  0  0  0
   -2.2730    0.3003   -0.1945 H   0  0  0  0  0  0  0  0  0  0  0  0
   -1.6021   -1.3228   -0.4654 H   0  0  0  0  0  0  0  0  0  0  0  0
   -1.5125   -0.5555    1.1384 H   0  0  0  0  0  0  0  0  0  0  0  0
   -0.7031    2.0553    0.1540 H   0  0  0  0  0  0  0  0  0  0  0  0
    2.2990    0.8300    0.1943 H   0  0  0  0  0  0  0  0  0  0  0  0
  1  3  1  0  0  0  0
  1 12  1  0  0  0  0
  2  4  1  0  0  0  0
  2 13  1  0  0  0  0
  3  4  1  0  0  0  0
  3  5  1  0  0  0  0
  3  6  1  6  0  0  0
  4  7  1  0  0  0  0
  4  8  1  0  0  0  0
  5  9  1  0  0  0  0
  5 10  1  0  0  0  0
  5 11  1  0  0  0  0
M  END
