DB01366
 OpenBabel07062211533D

 43 44  0  0  1  0  0  0  0  0999 V2000
   -0.7379    1.1273    2.1076 O   0  0  0  0  0  0  0  0  0  0  0  0
    5.2268    1.1256    0.1392 O   0  0  0  0  0  0  0  0  0  0  0  0
    4.3197   -3.5832   -1.0777 O   0  0  0  0  0  0  0  0  0  0  0  0
   -2.5977    0.4525    0.0125 N   0  0  0  0  0  0  0  0  0  0  0  0
    4.1205   -1.3939   -0.3924 N   0  0  0  0  0  0  0  0  0  0  0  0
   -1.1780    0.7026   -0.2699 C   0  0  2  0  0  0  0  0  0  0  0  0
   -0.3117    0.3527    0.9773 C   0  0  1  0  0  0  0  0  0  0  0  0
   -0.9989    2.1597   -0.7420 C   0  0  0  0  0  0  0  0  0  0  0  0
    1.1563    0.5075    0.7388 C   0  0  0  0  0  0  0  0  0  0  0  0
   -2.7956   -0.9182    0.4495 C   0  0  0  0  0  0  0  0  0  0  0  0
    1.9512   -0.5447    0.2754 C   0  0  0  0  0  0  0  0  0  0  0  0
   -1.8558    2.5073   -1.9547 C   0  0  0  0  0  0  0  0  0  0  0  0
    1.7297    1.7547    0.9959 C   0  0  0  0  0  0  0  0  0  0  0  0
    3.3203   -0.3351    0.0736 C   0  0  0  0  0  0  0  0  0  0  0  0
   -2.3444   -1.8904   -0.6371 C   0  0  0  0  0  0  0  0  0  0  0  0
   -4.2645   -1.1321    0.8007 C   0  0  0  0  0  0  0  0  0  0  0  0
    3.8955    0.9108    0.3303 C   0  0  0  0  0  0  0  0  0  0  0  0
    1.3891   -1.8636   -0.0049 C   0  0  0  0  0  0  0  0  0  0  0  0
    3.0956    1.9556    0.7920 C   0  0  0  0  0  0  0  0  0  0  0  0
    2.1687   -2.8568   -0.4474 C   0  0  0  0  0  0  0  0  0  0  0  0
    3.6267   -2.6540   -0.6685 C   0  0  0  0  0  0  0  0  0  0  0  0
   -0.8445    0.1006   -1.1221 H   0  0  0  0  0  0  0  0  0  0  0  0
   -0.4480   -0.6697    1.3206 H   0  0  0  0  0  0  0  0  0  0  0  0
    0.0426    2.3354   -1.0306 H   0  0  0  0  0  0  0  0  0  0  0  0
   -1.2335    2.8600    0.0688 H   0  0  0  0  0  0  0  0  0  0  0  0
   -2.9327    1.1015    0.7233 H   0  0  0  0  0  0  0  0  0  0  0  0
   -2.2792   -1.1516    1.3829 H   0  0  0  0  0  0  0  0  0  0  0  0
   -2.9238    2.4790   -1.7184 H   0  0  0  0  0  0  0  0  0  0  0  0
   -1.6217    3.5199   -2.2997 H   0  0  0  0  0  0  0  0  0  0  0  0
   -1.6643    1.8165   -2.7821 H   0  0  0  0  0  0  0  0  0  0  0  0
    1.1360    2.5920    1.3532 H   0  0  0  0  0  0  0  0  0  0  0  0
   -2.5338   -2.9208   -0.3133 H   0  0  0  0  0  0  0  0  0  0  0  0
   -2.9226   -1.7378   -1.5569 H   0  0  0  0  0  0  0  0  0  0  0  0
   -1.2954   -1.8441   -0.9102 H   0  0  0  0  0  0  0  0  0  0  0  0
   -4.5802   -0.4600    1.6067 H   0  0  0  0  0  0  0  0  0  0  0  0
   -4.4380   -2.1594    1.1395 H   0  0  0  0  0  0  0  0  0  0  0  0
   -4.9145   -0.9520   -0.0633 H   0  0  0  0  0  0  0  0  0  0  0  0
   -1.6567    0.8835    2.3077 H   0  0  0  0  0  0  0  0  0  0  0  0
    0.3581   -2.0960    0.1939 H   0  0  0  0  0  0  0  0  0  0  0  0
    3.5233    2.9336    0.9972 H   0  0  0  0  0  0  0  0  0  0  0  0
    5.1113   -1.2157   -0.5312 H   0  0  0  0  0  0  0  0  0  0  0  0
    1.7656   -3.8459   -0.6345 H   0  0  0  0  0  0  0  0  0  0  0  0
    5.4364    2.0467    0.3706 H   0  0  0  0  0  0  0  0  0  0  0  0
  1  7  1  0  0  0  0
  1 38  1  0  0  0  0
  2 17  1  0  0  0  0
  2 43  1  0  0  0  0
  3 21  2  0  0  0  0
  4  6  1  0  0  0  0
  4 10  1  0  0  0  0
  4 26  1  0  0  0  0
  5 14  1  0  0  0  0
  5 21  1  0  0  0  0
  5 41  1  0  0  0  0
  6  7  1  0  0  0  0
  6  8  1  0  0  0  0
  6 22  1  6  0  0  0
  7  9  1  0  0  0  0
  7 23  1  1  0  0  0
  8 12  1  0  0  0  0
  8 24  1  0  0  0  0
  8 25  1  0  0  0  0
  9 11  2  0  0  0  0
  9 13  1  0  0  0  0
 10 15  1  0  0  0  0
 10 16  1  0  0  0  0
 10 27  1  0  0  0  0
 11 14  1  0  0  0  0
 11 18  1  0  0  0  0
 12 28  1  0  0  0  0
 12 29  1  0  0  0  0
 12 30  1  0  0  0  0
 13 19  2  0  0  0  0
 13 31  1  0  0  0  0
 14 17  2  0  0  0  0
 15 32  1  0  0  0  0
 15 33  1  0  0  0  0
 15 34  1  0  0  0  0
 16 35  1  0  0  0  0
 16 36  1  0  0  0  0
 16 37  1  0  0  0  0
 17 19  1  0  0  0  0
 18 20  2  0  0  0  0
 18 39  1  0  0  0  0
 19 40  1  0  0  0  0
 20 21  1  0  0  0  0
 20 42  1  0  0  0  0
M  END
