DB01029
 OpenBabel07062211533D

 60 64  0  0  0  0  0  0  0  0999 V2000
    1.8665   -2.3464    2.0893 O   0  0  0  0  0  0  0  0  0  0  0  0
    3.0351   -0.6228   -0.7863 N   0  0  0  0  0  0  0  0  0  0  0  0
    1.7330   -0.2741    1.0176 N   0  0  0  0  0  0  0  0  0  0  0  0
   -3.5867   -0.7153   -2.5418 N   0  0  0  0  0  0  0  0  0  0  0  0
   -3.9148    1.5032   -2.2288 N   0  0  0  0  0  0  0  0  0  0  0  0
   -2.8944    0.0635   -3.3849 N   0  0  0  0  0  0  0  0  0  0  0  0
   -3.0585    1.3853   -3.2362 N   0  0  0  0  0  0  0  0  0  0  0  0
    3.0204   -1.8820   -0.0061 C   0  0  0  0  0  0  0  0  0  0  0  0
    2.4782   -3.0337   -0.8587 C   0  0  0  0  0  0  0  0  0  0  0  0
    4.4457   -2.2642    0.4060 C   0  0  0  0  0  0  0  0  0  0  0  0
    3.6915   -3.9087   -1.1519 C   0  0  0  0  0  0  0  0  0  0  0  0
    4.5534   -3.7505    0.0885 C   0  0  0  0  0  0  0  0  0  0  0  0
    2.1356   -1.5708    1.1851 C   0  0  0  0  0  0  0  0  0  0  0  0
    2.2836    0.1960   -0.1180 C   0  0  0  0  0  0  0  0  0  0  0  0
    2.0284    1.5970   -0.5730 C   0  0  0  0  0  0  0  0  0  0  0  0
    0.8632    0.4444    1.9321 C   0  0  0  0  0  0  0  0  0  0  0  0
    3.1119    2.5410   -0.0639 C   0  0  0  0  0  0  0  0  0  0  0  0
   -0.5856    0.2847    1.5719 C   0  0  0  0  0  0  0  0  0  0  0  0
    2.9204    3.9765   -0.5593 C   0  0  0  0  0  0  0  0  0  0  0  0
   -1.0775   -0.9730    1.2429 C   0  0  0  0  0  0  0  0  0  0  0  0
   -1.4202    1.3958    1.5711 C   0  0  0  0  0  0  0  0  0  0  0  0
    4.0508    4.8807   -0.0924 C   0  0  0  0  0  0  0  0  0  0  0  0
   -2.4235   -1.1214    0.9081 C   0  0  0  0  0  0  0  0  0  0  0  0
   -2.7663    1.2475    1.2365 C   0  0  0  0  0  0  0  0  0  0  0  0
   -3.2679   -0.0113    0.9050 C   0  0  0  0  0  0  0  0  0  0  0  0
   -4.6642   -0.1654    0.5586 C   0  0  0  0  0  0  0  0  0  0  0  0
   -5.1133   -0.0485   -0.7593 C   0  0  0  0  0  0  0  0  0  0  0  0
   -5.5779   -0.4387    1.5793 C   0  0  0  0  0  0  0  0  0  0  0  0
   -6.4677   -0.2039   -1.0541 C   0  0  0  0  0  0  0  0  0  0  0  0
   -6.9323   -0.5941    1.2844 C   0  0  0  0  0  0  0  0  0  0  0  0
   -4.2063    0.2329   -1.8418 C   0  0  0  0  0  0  0  0  0  0  0  0
   -7.3773   -0.4767   -0.0322 C   0  0  0  0  0  0  0  0  0  0  0  0
    2.0045   -2.6979   -1.7875 H   0  0  0  0  0  0  0  0  0  0  0  0
    1.7341   -3.6200   -0.3058 H   0  0  0  0  0  0  0  0  0  0  0  0
    5.1866   -1.7121   -0.1856 H   0  0  0  0  0  0  0  0  0  0  0  0
    4.6597   -2.0723    1.4627 H   0  0  0  0  0  0  0  0  0  0  0  0
    3.4157   -4.9504   -1.3387 H   0  0  0  0  0  0  0  0  0  0  0  0
    4.2236   -3.5316   -2.0334 H   0  0  0  0  0  0  0  0  0  0  0  0
    5.5875   -4.0647   -0.0791 H   0  0  0  0  0  0  0  0  0  0  0  0
    4.1434   -4.3443    0.9140 H   0  0  0  0  0  0  0  0  0  0  0  0
    1.0401    1.9441   -0.2614 H   0  0  0  0  0  0  0  0  0  0  0  0
    2.0316    1.5985   -1.6701 H   0  0  0  0  0  0  0  0  0  0  0  0
    1.1514    1.4997    1.9531 H   0  0  0  0  0  0  0  0  0  0  0  0
    1.0110    0.0432    2.9422 H   0  0  0  0  0  0  0  0  0  0  0  0
    4.0942    2.1732   -0.3877 H   0  0  0  0  0  0  0  0  0  0  0  0
    3.1298    2.5320    1.0328 H   0  0  0  0  0  0  0  0  0  0  0  0
    2.8800    3.9895   -1.6546 H   0  0  0  0  0  0  0  0  0  0  0  0
    1.9649    4.3700   -0.1936 H   0  0  0  0  0  0  0  0  0  0  0  0
   -0.4627   -1.8640    1.2482 H   0  0  0  0  0  0  0  0  0  0  0  0
   -1.0419    2.3814    1.8276 H   0  0  0  0  0  0  0  0  0  0  0  0
    3.8934    5.9015   -0.4545 H   0  0  0  0  0  0  0  0  0  0  0  0
    4.1017    4.9118    1.0006 H   0  0  0  0  0  0  0  0  0  0  0  0
    5.0159    4.5305   -0.4721 H   0  0  0  0  0  0  0  0  0  0  0  0
   -2.7995   -2.1101    0.6553 H   0  0  0  0  0  0  0  0  0  0  0  0
   -3.4108    2.1235    1.2383 H   0  0  0  0  0  0  0  0  0  0  0  0
   -5.2510   -0.5341    2.6124 H   0  0  0  0  0  0  0  0  0  0  0  0
   -6.8330   -0.1154   -2.0747 H   0  0  0  0  0  0  0  0  0  0  0  0
   -7.6405   -0.8065    2.0799 H   0  0  0  0  0  0  0  0  0  0  0  0
   -8.4319   -0.5977   -0.2618 H   0  0  0  0  0  0  0  0  0  0  0  0
   -2.2812   -0.3248   -4.0937 H   0  0  0  0  0  0  0  0  0  0  0  0
  1 13  2  0  0  0  0
  2  8  1  0  0  0  0
  2 14  2  0  0  0  0
  3 13  1  0  0  0  0
  3 14  1  0  0  0  0
  3 16  1  0  0  0  0
  4  6  1  0  0  0  0
  4 31  2  0  0  0  0
  5  7  2  0  0  0  0
  5 31  1  0  0  0  0
  6  7  1  0  0  0  0
  6 60  1  0  0  0  0
  8  9  1  0  0  0  0
  8 10  1  0  0  0  0
  8 13  1  0  0  0  0
  9 11  1  0  0  0  0
  9 33  1  0  0  0  0
  9 34  1  0  0  0  0
 10 12  1  0  0  0  0
 10 35  1  0  0  0  0
 10 36  1  0  0  0  0
 11 12  1  0  0  0  0
 11 37  1  0  0  0  0
 11 38  1  0  0  0  0
 12 39  1  0  0  0  0
 12 40  1  0  0  0  0
 14 15  1  0  0  0  0
 15 17  1  0  0  0  0
 15 41  1  0  0  0  0
 15 42  1  0  0  0  0
 16 18  1  0  0  0  0
 16 43  1  0  0  0  0
 16 44  1  0  0  0  0
 17 19  1  0  0  0  0
 17 45  1  0  0  0  0
 17 46  1  0  0  0  0
 18 20  2  0  0  0  0
 18 21  1  0  0  0  0
 19 22  1  0  0  0  0
 19 47  1  0  0  0  0
 19 48  1  0  0  0  0
 20 23  1  0  0  0  0
 20 49  1  0  0  0  0
 21 24  2  0  0  0  0
 21 50  1  0  0  0  0
 22 51  1  0  0  0  0
 22 52  1  0  0  0  0
 22 53  1  0  0  0  0
 23 25  2  0  0  0  0
 23 54  1  0  0  0  0
 24 25  1  0  0  0  0
 24 55  1  0  0  0  0
 25 26  1  0  0  0  0
 26 27  2  0  0  0  0
 26 28  1  0  0  0  0
 27 29  1  0  0  0  0
 27 31  1  0  0  0  0
 28 30  2  0  0  0  0
 28 56  1  0  0  0  0
 29 32  2  0  0  0  0
 29 57  1  0  0  0  0
 30 32  1  0  0  0  0
 30 58  1  0  0  0  0
 32 59  1  0  0  0  0
M  END
