DB01016
 OpenBabel07062211533D

 61 63  0  0  0  0  0  0  0  0999 V2000
    1.6451    2.4182    4.4323 Cl  0  0  0  0  0  0  0  0  0  0  0  0
   -0.1132   -4.6089    0.5572 S   0  0  0  0  0  0  0  0  0  0  0  0
   -1.5397   -2.2653    2.0130 O   0  0  0  0  0  0  0  0  0  0  0  0
   -0.1982   -4.8223    1.9890 O   0  0  0  0  0  0  0  0  0  0  0  0
   -0.0622   -5.7368   -0.3528 O   0  0  0  0  0  0  0  0  0  0  0  0
    1.8326    1.2035   -1.6500 O   0  0  0  0  0  0  0  0  0  0  0  0
    0.5534    3.4667   -1.2433 O   0  0  0  0  0  0  0  0  0  0  0  0
   -2.9127   -1.8023    0.2118 N   0  0  0  0  0  0  0  0  0  0  0  0
   -1.3595   -3.5459    0.0680 N   0  0  0  0  0  0  0  0  0  0  0  0
    3.6432    0.9210   -0.2278 N   0  0  0  0  0  0  0  0  0  0  0  0
   -3.6259   -0.6967    0.8119 C   0  0  0  0  0  0  0  0  0  0  0  0
   -5.0692   -0.6298    0.3011 C   0  0  0  0  0  0  0  0  0  0  0  0
   -2.8908    0.6268    0.5746 C   0  0  0  0  0  0  0  0  0  0  0  0
   -5.1543   -0.1618   -1.1517 C   0  0  0  0  0  0  0  0  0  0  0  0
   -2.9795    1.0928   -0.8786 C   0  0  0  0  0  0  0  0  0  0  0  0
   -4.4255    1.1621   -1.3605 C   0  0  0  0  0  0  0  0  0  0  0  0
   -1.9191   -2.5008    0.8698 C   0  0  0  0  0  0  0  0  0  0  0  0
    1.3181   -3.6244    0.2316 C   0  0  0  0  0  0  0  0  0  0  0  0
    3.5605   -2.0829   -0.2778 C   0  0  0  0  0  0  0  0  0  0  0  0
    4.7689   -1.2528   -0.5522 C   0  0  0  0  0  0  0  0  0  0  0  0
    1.8103   -2.7978    1.2268 C   0  0  0  0  0  0  0  0  0  0  0  0
    1.9206   -3.6984   -1.0124 C   0  0  0  0  0  0  0  0  0  0  0  0
    2.9403   -2.0209    0.9701 C   0  0  0  0  0  0  0  0  0  0  0  0
    3.0503   -2.9215   -1.2691 C   0  0  0  0  0  0  0  0  0  0  0  0
    4.4441    0.1323   -1.1252 C   0  0  0  0  0  0  0  0  0  0  0  0
    2.3840    1.3987   -0.5700 C   0  0  0  0  0  0  0  0  0  0  0  0
    1.6956    2.2206    0.4584 C   0  0  0  0  0  0  0  0  0  0  0  0
    0.8166    3.2110    0.0693 C   0  0  0  0  0  0  0  0  0  0  0  0
    1.9658    1.9592    1.7871 C   0  0  0  0  0  0  0  0  0  0  0  0
    0.1800    3.9721    1.0500 C   0  0  0  0  0  0  0  0  0  0  0  0
    1.3294    2.7205    2.7676 C   0  0  0  0  0  0  0  0  0  0  0  0
    0.4364    3.7267    2.3991 C   0  0  0  0  0  0  0  0  0  0  0  0
    1.3839    4.4249   -1.8955 C   0  0  0  0  0  0  0  0  0  0  0  0
   -3.6565   -0.8786    1.8935 H   0  0  0  0  0  0  0  0  0  0  0  0
   -5.5524   -1.6096    0.3961 H   0  0  0  0  0  0  0  0  0  0  0  0
   -5.6377    0.0676    0.9296 H   0  0  0  0  0  0  0  0  0  0  0  0
   -3.3313    1.3988    1.2184 H   0  0  0  0  0  0  0  0  0  0  0  0
   -1.8362    0.5398    0.8631 H   0  0  0  0  0  0  0  0  0  0  0  0
   -6.2067   -0.0476   -1.4360 H   0  0  0  0  0  0  0  0  0  0  0  0
   -4.7312   -0.9228   -1.8180 H   0  0  0  0  0  0  0  0  0  0  0  0
   -2.4110    0.4097   -1.5215 H   0  0  0  0  0  0  0  0  0  0  0  0
   -2.5126    2.0795   -0.9754 H   0  0  0  0  0  0  0  0  0  0  0  0
   -4.9519    1.9570   -0.8178 H   0  0  0  0  0  0  0  0  0  0  0  0
   -4.4480    1.4323   -2.4221 H   0  0  0  0  0  0  0  0  0  0  0  0
   -3.1131   -2.0514   -0.7517 H   0  0  0  0  0  0  0  0  0  0  0  0
   -1.7633   -3.7005   -0.8643 H   0  0  0  0  0  0  0  0  0  0  0  0
    5.3489   -1.1386    0.3734 H   0  0  0  0  0  0  0  0  0  0  0  0
    5.4319   -1.7821   -1.2484 H   0  0  0  0  0  0  0  0  0  0  0  0
    1.3402   -2.7329    2.2030 H   0  0  0  0  0  0  0  0  0  0  0  0
    1.5347   -4.3379   -1.8000 H   0  0  0  0  0  0  0  0  0  0  0  0
    3.3280   -1.3746    1.7529 H   0  0  0  0  0  0  0  0  0  0  0  0
    3.5221   -2.9755   -2.2467 H   0  0  0  0  0  0  0  0  0  0  0  0
    3.9431    0.0341   -2.0944 H   0  0  0  0  0  0  0  0  0  0  0  0
    5.3756    0.6847   -1.2893 H   0  0  0  0  0  0  0  0  0  0  0  0
    4.0789    1.1961    0.6461 H   0  0  0  0  0  0  0  0  0  0  0  0
    2.6310    1.1603    2.1005 H   0  0  0  0  0  0  0  0  0  0  0  0
   -0.5179    4.7568    0.7705 H   0  0  0  0  0  0  0  0  0  0  0  0
   -0.0673    4.3273    3.1523 H   0  0  0  0  0  0  0  0  0  0  0  0
    2.4372    4.1318   -1.8414 H   0  0  0  0  0  0  0  0  0  0  0  0
    1.0887    4.4742   -2.9471 H   0  0  0  0  0  0  0  0  0  0  0  0
    1.2473    5.4141   -1.4471 H   0  0  0  0  0  0  0  0  0  0  0  0
  1 31  1  0  0  0  0
  2  4  2  0  0  0  0
  2  5  2  0  0  0  0
  2  9  1  0  0  0  0
  2 18  1  0  0  0  0
  3 17  2  0  0  0  0
  6 26  2  0  0  0  0
  7 28  1  0  0  0  0
  7 33  1  0  0  0  0
  8 11  1  0  0  0  0
  8 17  1  0  0  0  0
  8 45  1  0  0  0  0
  9 17  1  0  0  0  0
  9 46  1  0  0  0  0
 10 25  1  0  0  0  0
 10 26  1  0  0  0  0
 10 55  1  0  0  0  0
 11 12  1  0  0  0  0
 11 13  1  0  0  0  0
 11 34  1  0  0  0  0
 12 14  1  0  0  0  0
 12 35  1  0  0  0  0
 12 36  1  0  0  0  0
 13 15  1  0  0  0  0
 13 37  1  0  0  0  0
 13 38  1  0  0  0  0
 14 16  1  0  0  0  0
 14 39  1  0  0  0  0
 14 40  1  0  0  0  0
 15 16  1  0  0  0  0
 15 41  1  0  0  0  0
 15 42  1  0  0  0  0
 16 43  1  0  0  0  0
 16 44  1  0  0  0  0
 18 21  2  0  0  0  0
 18 22  1  0  0  0  0
 19 20  1  0  0  0  0
 19 23  2  0  0  0  0
 19 24  1  0  0  0  0
 20 25  1  0  0  0  0
 20 47  1  0  0  0  0
 20 48  1  0  0  0  0
 21 23  1  0  0  0  0
 21 49  1  0  0  0  0
 22 24  2  0  0  0  0
 22 50  1  0  0  0  0
 23 51  1  0  0  0  0
 24 52  1  0  0  0  0
 25 53  1  0  0  0  0
 25 54  1  0  0  0  0
 26 27  1  0  0  0  0
 27 28  2  0  0  0  0
 27 29  1  0  0  0  0
 28 30  1  0  0  0  0
 29 31  2  0  0  0  0
 29 56  1  0  0  0  0
 30 32  2  0  0  0  0
 30 57  1  0  0  0  0
 31 32  1  0  0  0  0
 32 58  1  0  0  0  0
 33 59  1  0  0  0  0
 33 60  1  0  0  0  0
 33 61  1  0  0  0  0
M  END
