DB01060
 OpenBabel07062211533D

 44 46  0  0  1  0  0  0  0  0999 V2000
    1.0019    0.1647   -1.1640 S   0  0  0  0  0  0  0  0  0  0  0  0
    2.3054   -2.5556    2.0182 O   0  0  0  0  0  0  0  0  0  0  0  0
    5.4523    0.7307   -0.0403 O   0  0  0  0  0  0  0  0  0  0  0  0
    4.5114   -0.4558   -1.7442 O   0  0  0  0  0  0  0  0  0  0  0  0
   -1.4410   -2.4505   -1.7289 O   0  0  0  0  0  0  0  0  0  0  0  0
   -3.4328    3.8811   -0.2024 O   0  0  0  0  0  0  0  0  0  0  0  0
    2.7421   -1.4180   -0.0018 N   0  0  0  0  0  0  0  0  0  0  0  0
   -0.3520   -2.1507    0.2960 N   0  0  0  0  0  0  0  0  0  0  0  0
   -3.8668   -2.4471   -0.4072 N   0  0  0  0  0  0  0  0  0  0  0  0
    1.7359   -1.5115   -1.0604 C   0  0  1  0  0  0  0  0  0  0  0  0
    2.1491    0.8988    0.1046 C   0  0  0  0  0  0  0  0  0  0  0  0
    3.2918   -0.1198    0.3155 C   0  0  2  0  0  0  0  0  0  0  0  0
    0.9915   -2.5199   -0.1700 C   0  0  1  0  0  0  0  0  0  0  0  0
    2.1063   -2.2603    0.8619 C   0  0  0  0  0  0  0  0  0  0  0  0
    2.6245    2.2711   -0.3840 C   0  0  0  0  0  0  0  0  0  0  0  0
    1.3414    1.0843    1.4002 C   0  0  0  0  0  0  0  0  0  0  0  0
    4.4568    0.0145   -0.6175 C   0  0  0  0  0  0  0  0  0  0  0  0
   -1.4732   -2.1473   -0.5373 C   0  0  0  0  0  0  0  0  0  0  0  0
   -2.7456   -1.7060    0.1775 C   0  0  1  0  0  0  0  0  0  0  0  0
   -2.9297   -0.2060    0.0756 C   0  0  0  0  0  0  0  0  0  0  0  0
   -2.9928    0.5458    1.2349 C   0  0  0  0  0  0  0  0  0  0  0  0
   -3.0312    0.3768   -1.1750 C   0  0  0  0  0  0  0  0  0  0  0  0
   -3.1633    1.9271    1.1405 C   0  0  0  0  0  0  0  0  0  0  0  0
   -3.2015    1.7581   -1.2692 C   0  0  0  0  0  0  0  0  0  0  0  0
   -3.2676    2.5332   -0.1115 C   0  0  0  0  0  0  0  0  0  0  0  0
    2.1280   -1.9121   -1.9993 H   0  0  0  0  0  0  0  0  0  0  0  0
    3.6478   -0.1348    1.3524 H   0  0  0  0  0  0  0  0  0  0  0  0
    1.0134   -3.5493   -0.5476 H   0  0  0  0  0  0  0  0  0  0  0  0
    1.7880    2.9731   -0.4840 H   0  0  0  0  0  0  0  0  0  0  0  0
    3.3325    2.7111    0.3277 H   0  0  0  0  0  0  0  0  0  0  0  0
    3.1223    2.2172   -1.3585 H   0  0  0  0  0  0  0  0  0  0  0  0
    1.9732    1.5148    2.1862 H   0  0  0  0  0  0  0  0  0  0  0  0
    0.4958    1.7674    1.2552 H   0  0  0  0  0  0  0  0  0  0  0  0
    0.9433    0.1416    1.7886 H   0  0  0  0  0  0  0  0  0  0  0  0
   -0.4838   -1.8750    1.2665 H   0  0  0  0  0  0  0  0  0  0  0  0
   -2.6740   -2.0052    1.2308 H   0  0  0  0  0  0  0  0  0  0  0  0
    6.2250    0.8303   -0.6364 H   0  0  0  0  0  0  0  0  0  0  0  0
   -4.7236   -2.2180    0.0959 H   0  0  0  0  0  0  0  0  0  0  0  0
   -3.7221   -3.4472   -0.2702 H   0  0  0  0  0  0  0  0  0  0  0  0
   -2.9114    0.0854    2.2150 H   0  0  0  0  0  0  0  0  0  0  0  0
   -2.9869   -0.2102   -2.0873 H   0  0  0  0  0  0  0  0  0  0  0  0
   -3.2130    2.5257    2.0459 H   0  0  0  0  0  0  0  0  0  0  0  0
   -3.2819    2.2181   -2.2504 H   0  0  0  0  0  0  0  0  0  0  0  0
   -3.4853    4.1292   -1.1413 H   0  0  0  0  0  0  0  0  0  0  0  0
  1 10  1  0  0  0  0
  1 11  1  0  0  0  0
  2 14  2  0  0  0  0
  3 17  1  0  0  0  0
  3 37  1  0  0  0  0
  4 17  2  0  0  0  0
  5 18  2  0  0  0  0
  6 25  1  0  0  0  0
  6 44  1  0  0  0  0
  7 10  1  0  0  0  0
  7 12  1  0  0  0  0
  7 14  1  0  0  0  0
  8 13  1  0  0  0  0
  8 18  1  0  0  0  0
  8 35  1  0  0  0  0
  9 19  1  0  0  0  0
  9 38  1  0  0  0  0
  9 39  1  0  0  0  0
 10 13  1  1  0  0  0
 10 26  1  0  0  0  0
 11 12  1  0  0  0  0
 11 15  1  0  0  0  0
 11 16  1  0  0  0  0
 12 17  1  0  0  0  0
 12 27  1  1  0  0  0
 13 14  1  0  0  0  0
 13 28  1  6  0  0  0
 15 29  1  0  0  0  0
 15 30  1  0  0  0  0
 15 31  1  0  0  0  0
 16 32  1  0  0  0  0
 16 33  1  0  0  0  0
 16 34  1  0  0  0  0
 18 19  1  0  0  0  0
 19 20  1  0  0  0  0
 19 36  1  1  0  0  0
 20 21  2  0  0  0  0
 20 22  1  0  0  0  0
 21 23  1  0  0  0  0
 21 40  1  0  0  0  0
 22 24  2  0  0  0  0
 22 41  1  0  0  0  0
 23 25  2  0  0  0  0
 23 42  1  0  0  0  0
 24 25  1  0  0  0  0
 24 43  1  0  0  0  0
M  END
