DB01362
 OpenBabel07062211533D

 60 60  0  0  1  0  0  0  0  0999 V2000
    2.9949    1.9857   -0.4131 I   0  0  0  0  0  0  0  0  0  0  0  0
   -2.7760    0.9630    1.2917 I   0  0  0  0  0  0  0  0  0  0  0  0
    0.7472   -3.6908   -0.5010 I   0  0  0  0  0  0  0  0  0  0  0  0
   -2.3924    4.1773    0.5827 O   0  0  0  0  0  0  0  0  0  0  0  0
   -3.7360    4.5721   -1.8213 O   0  0  0  0  0  0  0  0  0  0  0  0
    0.1867    4.2947    2.1194 O   0  0  0  0  0  0  0  0  0  0  0  0
   -5.4278   -1.3524   -0.9098 O   0  0  0  0  0  0  0  0  0  0  0  0
    6.2086   -0.2570    0.9502 O   0  0  0  0  0  0  0  0  0  0  0  0
   -1.9958   -2.5969    1.6655 O   0  0  0  0  0  0  0  0  0  0  0  0
    3.0563   -1.2968   -2.0400 O   0  0  0  0  0  0  0  0  0  0  0  0
   -7.4620   -2.5557    0.5580 O   0  0  0  0  0  0  0  0  0  0  0  0
    8.4022   -0.3568   -0.7578 O   0  0  0  0  0  0  0  0  0  0  0  0
   -0.0156    2.4835    0.6213 N   0  0  0  0  0  0  0  0  0  0  0  0
   -2.7127   -2.2690   -0.5152 N   0  0  0  0  0  0  0  0  0  0  0  0
    3.7772   -1.5932    0.1448 N   0  0  0  0  0  0  0  0  0  0  0  0
   -0.4031    3.3652   -0.5189 C   0  0  0  0  0  0  0  0  0  0  0  0
    0.1534    1.1138    0.3717 C   0  0  0  0  0  0  0  0  0  0  0  0
   -1.9127    3.5761   -0.6204 C   0  0  2  0  0  0  0  0  0  0  0  0
    1.3798    0.6349   -0.0892 C   0  0  0  0  0  0  0  0  0  0  0  0
   -0.9049    0.2305    0.5844 C   0  0  0  0  0  0  0  0  0  0  0  0
    1.5478   -0.7274   -0.3373 C   0  0  0  0  0  0  0  0  0  0  0  0
   -0.7368   -1.1318    0.3363 C   0  0  0  0  0  0  0  0  0  0  0  0
    0.4895   -1.6107   -0.1245 C   0  0  0  0  0  0  0  0  0  0  0  0
   -2.3165    4.4588   -1.7970 C   0  0  0  0  0  0  0  0  0  0  0  0
    0.2538    3.0835    1.8955 C   0  0  0  0  0  0  0  0  0  0  0  0
   -1.8477   -2.0587    0.5594 C   0  0  0  0  0  0  0  0  0  0  0  0
    2.8536   -1.2365   -0.8301 C   0  0  0  0  0  0  0  0  0  0  0  0
   -3.8674   -3.1354   -0.4440 C   0  0  0  0  0  0  0  0  0  0  0  0
    5.0929   -2.0797   -0.1739 C   0  0  0  0  0  0  0  0  0  0  0  0
   -5.1310   -2.4056    0.0078 C   0  0  2  0  0  0  0  0  0  0  0  0
    6.1280   -0.9622   -0.2890 C   0  0  2  0  0  0  0  0  0  0  0  0
    0.6072    2.1707    3.0474 C   0  0  0  0  0  0  0  0  0  0  0  0
   -6.3481   -3.3196    0.1057 C   0  0  0  0  0  0  0  0  0  0  0  0
    7.5207   -1.4700   -0.6480 C   0  0  0  0  0  0  0  0  0  0  0  0
   -0.0216    2.9352   -1.4521 H   0  0  0  0  0  0  0  0  0  0  0  0
    0.0915    4.3325   -0.3701 H   0  0  0  0  0  0  0  0  0  0  0  0
   -2.4337    2.6378   -0.7955 H   0  0  0  0  0  0  0  0  0  0  0  0
   -1.9052    5.4675   -1.6854 H   0  0  0  0  0  0  0  0  0  0  0  0
   -1.9801    4.0318   -2.7469 H   0  0  0  0  0  0  0  0  0  0  0  0
   -3.6461   -3.9685    0.2318 H   0  0  0  0  0  0  0  0  0  0  0  0
   -4.0055   -3.5381   -1.4537 H   0  0  0  0  0  0  0  0  0  0  0  0
    5.3678   -2.7641    0.6364 H   0  0  0  0  0  0  0  0  0  0  0  0
    5.0474   -2.6532   -1.1062 H   0  0  0  0  0  0  0  0  0  0  0  0
   -4.9663   -1.9291    0.9815 H   0  0  0  0  0  0  0  0  0  0  0  0
    5.8136   -0.2291   -1.0413 H   0  0  0  0  0  0  0  0  0  0  0  0
   -2.5357   -1.7843   -1.3905 H   0  0  0  0  0  0  0  0  0  0  0  0
    3.5248   -1.4987    1.1245 H   0  0  0  0  0  0  0  0  0  0  0  0
    0.9075    2.7740    3.9098 H   0  0  0  0  0  0  0  0  0  0  0  0
   -0.2554    1.5674    3.3351 H   0  0  0  0  0  0  0  0  0  0  0  0
    1.4455    1.5205    2.7874 H   0  0  0  0  0  0  0  0  0  0  0  0
   -2.2707    3.5317    1.2988 H   0  0  0  0  0  0  0  0  0  0  0  0
   -6.1720   -4.1370    0.8114 H   0  0  0  0  0  0  0  0  0  0  0  0
   -6.6051   -3.7326   -0.8751 H   0  0  0  0  0  0  0  0  0  0  0  0
    7.9105   -2.1263    0.1369 H   0  0  0  0  0  0  0  0  0  0  0  0
    7.5112   -2.0068   -1.6015 H   0  0  0  0  0  0  0  0  0  0  0  0
   -3.9630    5.1395   -2.5778 H   0  0  0  0  0  0  0  0  0  0  0  0
   -4.6479   -0.7727   -0.9490 H   0  0  0  0  0  0  0  0  0  0  0  0
    5.3166    0.0711    1.1564 H   0  0  0  0  0  0  0  0  0  0  0  0
   -8.2205   -3.1621    0.6097 H   0  0  0  0  0  0  0  0  0  0  0  0
    9.2791   -0.7100   -0.9859 H   0  0  0  0  0  0  0  0  0  0  0  0
  1 19  1  0  0  0  0
  2 20  1  0  0  0  0
  3 23  1  0  0  0  0
  4 18  1  0  0  0  0
  4 51  1  0  0  0  0
  5 24  1  0  0  0  0
  5 56  1  0  0  0  0
  6 25  2  0  0  0  0
  7 30  1  0  0  0  0
  7 57  1  0  0  0  0
  8 31  1  0  0  0  0
  8 58  1  0  0  0  0
  9 26  2  0  0  0  0
 10 27  2  0  0  0  0
 11 33  1  0  0  0  0
 11 59  1  0  0  0  0
 12 34  1  0  0  0  0
 12 60  1  0  0  0  0
 13 16  1  0  0  0  0
 13 17  1  0  0  0  0
 13 25  1  0  0  0  0
 14 26  1  0  0  0  0
 14 28  1  0  0  0  0
 14 46  1  0  0  0  0
 15 27  1  0  0  0  0
 15 29  1  0  0  0  0
 15 47  1  0  0  0  0
 16 18  1  0  0  0  0
 16 35  1  0  0  0  0
 16 36  1  0  0  0  0
 17 19  2  0  0  0  0
 17 20  1  0  0  0  0
 18 24  1  0  0  0  0
 18 37  1  6  0  0  0
 19 21  1  0  0  0  0
 20 22  2  0  0  0  0
 21 23  2  0  0  0  0
 21 27  1  0  0  0  0
 22 23  1  0  0  0  0
 22 26  1  0  0  0  0
 24 38  1  0  0  0  0
 24 39  1  0  0  0  0
 25 32  1  0  0  0  0
 28 30  1  0  0  0  0
 28 40  1  0  0  0  0
 28 41  1  0  0  0  0
 29 31  1  0  0  0  0
 29 42  1  0  0  0  0
 29 43  1  0  0  0  0
 30 33  1  0  0  0  0
 30 44  1  1  0  0  0
 31 34  1  0  0  0  0
 31 45  1  6  0  0  0
 32 48  1  0  0  0  0
 32 49  1  0  0  0  0
 32 50  1  0  0  0  0
 33 52  1  0  0  0  0
 33 53  1  0  0  0  0
 34 54  1  0  0  0  0
 34 55  1  0  0  0  0
M  END
