DB01138
 OpenBabel07062211533D

 49 52  0  0  0  0  0  0  0  0999 V2000
    3.5864   -1.9085    0.9189 S   0  0  1  0  0  0  0  0  0  0  0  0
   -1.1408   -3.3030    0.3159 O   0  0  0  0  0  0  0  0  0  0  0  0
   -0.0487    0.1171    3.3762 O   0  0  0  0  0  0  0  0  0  0  0  0
    4.2280   -1.3736    2.1620 O   0  0  0  0  0  0  0  0  0  0  0  0
   -1.6924   -0.9921    0.4780 N   0  0  0  0  0  0  0  0  0  0  0  0
   -1.2747    0.0540    1.3363 N   0  0  0  0  0  0  0  0  0  0  0  0
   -0.3641   -1.9329    2.1434 C   0  0  0  0  0  0  0  0  0  0  0  0
    1.1053   -2.3023    2.0510 C   0  0  0  0  0  0  0  0  0  0  0  0
   -1.0756   -2.1997    0.8377 C   0  0  0  0  0  0  0  0  0  0  0  0
   -0.5482   -0.4597    2.4216 C   0  0  0  0  0  0  0  0  0  0  0  0
    1.8234   -1.4676    0.9988 C   0  0  0  0  0  0  0  0  0  0  0  0
   -2.8611   -0.9419   -0.3409 C   0  0  0  0  0  0  0  0  0  0  0  0
   -1.2012    1.4275    0.9520 C   0  0  0  0  0  0  0  0  0  0  0  0
   -3.0874   -1.9315   -1.3001 C   0  0  0  0  0  0  0  0  0  0  0  0
   -0.9515    2.4117    1.9111 C   0  0  0  0  0  0  0  0  0  0  0  0
   -3.7823    0.0962   -0.1852 C   0  0  0  0  0  0  0  0  0  0  0  0
   -1.3781    1.7922   -0.3848 C   0  0  0  0  0  0  0  0  0  0  0  0
    4.0330   -0.7768   -0.4127 C   0  0  0  0  0  0  0  0  0  0  0  0
   -4.2291   -1.8830   -2.1000 C   0  0  0  0  0  0  0  0  0  0  0  0
   -0.8792    3.7531    1.5358 C   0  0  0  0  0  0  0  0  0  0  0  0
   -4.9241    0.1445   -0.9850 C   0  0  0  0  0  0  0  0  0  0  0  0
   -1.3057    3.1338   -0.7600 C   0  0  0  0  0  0  0  0  0  0  0  0
   -5.1475   -0.8451   -1.9423 C   0  0  0  0  0  0  0  0  0  0  0  0
   -1.0561    4.1142    0.2003 C   0  0  0  0  0  0  0  0  0  0  0  0
    4.4544    0.5117   -0.1070 C   0  0  0  0  0  0  0  0  0  0  0  0
    3.9519   -1.2034   -1.7329 C   0  0  0  0  0  0  0  0  0  0  0  0
    4.7996    1.3869   -1.1369 C   0  0  0  0  0  0  0  0  0  0  0  0
    4.2972   -0.3281   -2.7626 C   0  0  0  0  0  0  0  0  0  0  0  0
    4.7211    0.9670   -2.4645 C   0  0  0  0  0  0  0  0  0  0  0  0
   -0.8689   -2.4988    2.9341 H   0  0  0  0  0  0  0  0  0  0  0  0
    1.2089   -3.3686    1.8133 H   0  0  0  0  0  0  0  0  0  0  0  0
    1.5810   -2.1521    3.0286 H   0  0  0  0  0  0  0  0  0  0  0  0
    1.7674   -0.3977    1.2213 H   0  0  0  0  0  0  0  0  0  0  0  0
    1.3996   -1.6419    0.0048 H   0  0  0  0  0  0  0  0  0  0  0  0
   -2.3848   -2.7320   -1.4993 H   0  0  0  0  0  0  0  0  0  0  0  0
   -0.8564    2.1953    2.9686 H   0  0  0  0  0  0  0  0  0  0  0  0
   -3.7017    0.8446    0.5960 H   0  0  0  0  0  0  0  0  0  0  0  0
   -1.4892    1.0689   -1.1854 H   0  0  0  0  0  0  0  0  0  0  0  0
   -4.3986   -2.6474   -2.8528 H   0  0  0  0  0  0  0  0  0  0  0  0
   -0.6955    4.5182    2.2844 H   0  0  0  0  0  0  0  0  0  0  0  0
   -5.6486    0.9425   -0.8507 H   0  0  0  0  0  0  0  0  0  0  0  0
   -1.4248    3.4140   -1.8027 H   0  0  0  0  0  0  0  0  0  0  0  0
   -6.0372   -0.8083   -2.5640 H   0  0  0  0  0  0  0  0  0  0  0  0
   -0.9980    5.1584   -0.0923 H   0  0  0  0  0  0  0  0  0  0  0  0
    4.5181    0.8636    0.9188 H   0  0  0  0  0  0  0  0  0  0  0  0
    3.6227   -2.2093   -1.9788 H   0  0  0  0  0  0  0  0  0  0  0  0
    5.1279    2.3959   -0.9051 H   0  0  0  0  0  0  0  0  0  0  0  0
    4.2357   -0.6548   -3.7966 H   0  0  0  0  0  0  0  0  0  0  0  0
    4.9893    1.6487   -3.2664 H   0  0  0  0  0  0  0  0  0  0  0  0
  1  4  2  1  0  0  0
  1 11  1  0  0  0  0
  1 18  1  0  0  0  0
  2  9  2  0  0  0  0
  3 10  2  0  0  0  0
  5  6  1  0  0  0  0
  5  9  1  0  0  0  0
  5 12  1  0  0  0  0
  6 10  1  0  0  0  0
  6 13  1  0  0  0  0
  7  8  1  0  0  0  0
  7  9  1  0  0  0  0
  7 10  1  0  0  0  0
  7 30  1  0  0  0  0
  8 11  1  0  0  0  0
  8 31  1  0  0  0  0
  8 32  1  0  0  0  0
 11 33  1  0  0  0  0
 11 34  1  0  0  0  0
 12 14  2  0  0  0  0
 12 16  1  0  0  0  0
 13 15  2  0  0  0  0
 13 17  1  0  0  0  0
 14 19  1  0  0  0  0
 14 35  1  0  0  0  0
 15 20  1  0  0  0  0
 15 36  1  0  0  0  0
 16 21  2  0  0  0  0
 16 37  1  0  0  0  0
 17 22  2  0  0  0  0
 17 38  1  0  0  0  0
 18 25  2  0  0  0  0
 18 26  1  0  0  0  0
 19 23  2  0  0  0  0
 19 39  1  0  0  0  0
 20 24  2  0  0  0  0
 20 40  1  0  0  0  0
 21 23  1  0  0  0  0
 21 41  1  0  0  0  0
 22 24  1  0  0  0  0
 22 42  1  0  0  0  0
 23 43  1  0  0  0  0
 24 44  1  0  0  0  0
 25 27  1  0  0  0  0
 25 45  1  0  0  0  0
 26 28  2  0  0  0  0
 26 46  1  0  0  0  0
 27 29  2  0  0  0  0
 27 47  1  0  0  0  0
 28 29  1  0  0  0  0
 28 48  1  0  0  0  0
 29 49  1  0  0  0  0
M  END
