DB01589
 OpenBabel07062211533D

 36 38  0  0  0  0  0  0  0  0999 V2000
    0.2069   -4.5719    1.3725 Cl  0  0  0  0  0  0  0  0  0  0  0  0
   -2.3293    3.5529    0.5699 S   0  0  0  0  0  0  0  0  0  0  0  0
   -3.7667    0.8379   -3.0739 F   0  0  0  0  0  0  0  0  0  0  0  0
   -1.9894    1.9376   -2.4523 F   0  0  0  0  0  0  0  0  0  0  0  0
   -1.9757   -0.2482   -2.4682 F   0  0  0  0  0  0  0  0  0  0  0  0
    3.1224    1.8796    1.6547 F   0  0  0  0  0  0  0  0  0  0  0  0
   -2.1304    0.8215    0.1883 N   0  0  0  0  0  0  0  0  0  0  0  0
    0.5498    1.6585    1.3682 N   0  0  0  0  0  0  0  0  0  0  0  0
   -1.5228   -0.4622    0.4553 C   0  0  0  0  0  0  0  0  0  0  0  0
   -0.1612   -0.6176    0.7878 C   0  0  0  0  0  0  0  0  0  0  0  0
    0.7964    0.5259    0.8012 C   0  0  0  0  0  0  0  0  0  0  0  0
   -3.2383    0.8244   -0.7834 C   0  0  0  0  0  0  0  0  0  0  0  0
   -1.7488    1.9925    0.8671 C   0  0  0  0  0  0  0  0  0  0  0  0
   -0.7484    1.8245    1.9999 C   0  0  0  0  0  0  0  0  0  0  0  0
   -2.3092   -1.6292    0.3733 C   0  0  0  0  0  0  0  0  0  0  0  0
    0.3623   -1.8892    1.0843 C   0  0  0  0  0  0  0  0  0  0  0  0
    2.1132    0.3751    0.1176 C   0  0  0  0  0  0  0  0  0  0  0  0
   -2.7325    0.8381   -2.2039 C   0  0  0  0  0  0  0  0  0  0  0  0
   -1.7780   -2.8914    0.6511 C   0  0  0  0  0  0  0  0  0  0  0  0
   -0.4449   -3.0204    1.0155 C   0  0  0  0  0  0  0  0  0  0  0  0
    3.2201    1.0709    0.5897 C   0  0  0  0  0  0  0  0  0  0  0  0
    2.2195   -0.4622   -0.9868 C   0  0  0  0  0  0  0  0  0  0  0  0
    4.4504    0.9270   -0.0516 C   0  0  0  0  0  0  0  0  0  0  0  0
    3.4499   -0.6060   -1.6280 C   0  0  0  0  0  0  0  0  0  0  0  0
    4.5653    0.0887   -1.1604 C   0  0  0  0  0  0  0  0  0  0  0  0
   -3.9435    0.0084   -0.6301 H   0  0  0  0  0  0  0  0  0  0  0  0
   -3.8615    1.7118   -0.6408 H   0  0  0  0  0  0  0  0  0  0  0  0
   -1.0163    0.9895    2.6580 H   0  0  0  0  0  0  0  0  0  0  0  0
   -0.7130    2.7121    2.6414 H   0  0  0  0  0  0  0  0  0  0  0  0
   -3.3705   -1.6162    0.1551 H   0  0  0  0  0  0  0  0  0  0  0  0
    1.4049   -2.0006    1.3764 H   0  0  0  0  0  0  0  0  0  0  0  0
   -2.4262   -3.7623    0.5942 H   0  0  0  0  0  0  0  0  0  0  0  0
    1.3656   -0.9929   -1.3979 H   0  0  0  0  0  0  0  0  0  0  0  0
    5.3188    1.4682    0.3125 H   0  0  0  0  0  0  0  0  0  0  0  0
    3.5380   -1.2530   -2.4959 H   0  0  0  0  0  0  0  0  0  0  0  0
    5.5229   -0.0219   -1.6607 H   0  0  0  0  0  0  0  0  0  0  0  0
  1 20  1  0  0  0  0
  2 13  2  0  0  0  0
  3 18  1  0  0  0  0
  4 18  1  0  0  0  0
  5 18  1  0  0  0  0
  6 21  1  0  0  0  0
  7  9  1  0  0  0  0
  7 12  1  0  0  0  0
  7 13  1  0  0  0  0
  8 11  2  0  0  0  0
  8 14  1  0  0  0  0
  9 10  2  0  0  0  0
  9 15  1  0  0  0  0
 10 11  1  0  0  0  0
 10 16  1  0  0  0  0
 11 17  1  0  0  0  0
 12 18  1  0  0  0  0
 12 26  1  0  0  0  0
 12 27  1  0  0  0  0
 13 14  1  0  0  0  0
 14 28  1  0  0  0  0
 14 29  1  0  0  0  0
 15 19  2  0  0  0  0
 15 30  1  0  0  0  0
 16 20  2  0  0  0  0
 16 31  1  0  0  0  0
 17 21  2  0  0  0  0
 17 22  1  0  0  0  0
 19 20  1  0  0  0  0
 19 32  1  0  0  0  0
 21 23  1  0  0  0  0
 22 24  2  0  0  0  0
 22 33  1  0  0  0  0
 23 25  2  0  0  0  0
 23 34  1  0  0  0  0
 24 25  1  0  0  0  0
 24 35  1  0  0  0  0
 25 36  1  0  0  0  0
M  END
