DB01427
 OpenBabel07062211533D

 23 24  0  0  0  0  0  0  0  0999 V2000
    4.1165   -1.1086   -0.1857 O   0  0  0  0  0  0  0  0  0  0  0  0
    1.9232   -1.7812   -0.3385 N   0  0  0  0  0  0  0  0  0  0  0  0
    3.4127    1.5026    0.3387 N   0  0  0  0  0  0  0  0  0  0  0  0
   -4.0740    0.4560    0.0409 N   0  0  0  0  0  0  0  0  0  0  0  0
    0.1357   -0.2589   -0.0423 C   0  0  0  0  0  0  0  0  0  0  0  0
   -1.3190   -0.0118   -0.0131 C   0  0  0  0  0  0  0  0  0  0  0  0
    1.1220    0.7869    0.1757 C   0  0  0  0  0  0  0  0  0  0  0  0
    0.5816   -1.5013   -0.2926 C   0  0  0  0  0  0  0  0  0  0  0  0
    2.4466    0.5615    0.1400 C   0  0  0  0  0  0  0  0  0  0  0  0
    2.9176   -0.8393   -0.1400 C   0  0  0  0  0  0  0  0  0  0  0  0
   -1.8236    1.2277   -0.3895 C   0  0  0  0  0  0  0  0  0  0  0  0
   -2.1897   -1.0178    0.3903 C   0  0  0  0  0  0  0  0  0  0  0  0
   -3.1966    1.4092   -0.3454 C   0  0  0  0  0  0  0  0  0  0  0  0
   -3.5461   -0.7360    0.3997 C   0  0  0  0  0  0  0  0  0  0  0  0
    0.7684    1.7897    0.3980 H   0  0  0  0  0  0  0  0  0  0  0  0
   -0.0474   -2.3591   -0.4954 H   0  0  0  0  0  0  0  0  0  0  0  0
    2.1943   -2.7403   -0.5354 H   0  0  0  0  0  0  0  0  0  0  0  0
   -1.1948    2.0425   -0.7309 H   0  0  0  0  0  0  0  0  0  0  0  0
   -1.8605   -1.9965    0.7221 H   0  0  0  0  0  0  0  0  0  0  0  0
   -3.6414    2.3560   -0.6334 H   0  0  0  0  0  0  0  0  0  0  0  0
   -4.2672   -1.4840    0.7126 H   0  0  0  0  0  0  0  0  0  0  0  0
    3.1523    2.4617    0.5311 H   0  0  0  0  0  0  0  0  0  0  0  0
    4.3895    1.2410    0.2933 H   0  0  0  0  0  0  0  0  0  0  0  0
  1 10  2  0  0  0  0
  2  8  1  0  0  0  0
  2 10  1  0  0  0  0
  2 17  1  0  0  0  0
  3  9  1  0  0  0  0
  3 22  1  0  0  0  0
  3 23  1  0  0  0  0
  4 13  2  0  0  0  0
  4 14  1  0  0  0  0
  5  6  1  0  0  0  0
  5  7  1  0  0  0  0
  5  8  2  0  0  0  0
  6 11  2  0  0  0  0
  6 12  1  0  0  0  0
  7  9  2  0  0  0  0
  7 15  1  0  0  0  0
  8 16  1  0  0  0  0
  9 10  1  0  0  0  0
 11 13  1  0  0  0  0
 11 18  1  0  0  0  0
 12 14  2  0  0  0  0
 12 19  1  0  0  0  0
 13 20  1  0  0  0  0
 14 21  1  0  0  0  0
M  END
