DB01612
 OpenBabel07062211533D

 19 18  0  0  0  0  0  0  0  0999 V2000
    3.0894   -0.4584    0.0146 O   0  0  0  0  0  0  0  0  0  0  0  0
    5.3613   -0.3724    0.0482 O   0  0  0  0  0  0  0  0  0  0  0  0
    4.2486    0.3669    0.0264 N   0  0  0  0  0  0  0  0  0  0  0  0
   -0.5852    0.3233   -0.0303 C   0  0  0  0  0  0  0  0  0  0  0  0
    0.6957   -0.5080   -0.0210 C   0  0  0  0  0  0  0  0  0  0  0  0
   -1.8267   -0.5678   -0.0002 C   0  0  0  0  0  0  0  0  0  0  0  0
    1.9372    0.3726   -0.0084 C   0  0  0  0  0  0  0  0  0  0  0  0
   -3.1038    0.2568    0.0248 C   0  0  0  0  0  0  0  0  0  0  0  0
   -0.6075    0.9566   -0.9256 H   0  0  0  0  0  0  0  0  0  0  0  0
   -0.5944    0.9923    0.8388 H   0  0  0  0  0  0  0  0  0  0  0  0
    0.7260   -1.1691   -0.8962 H   0  0  0  0  0  0  0  0  0  0  0  0
    0.7128   -1.1690    0.8547 H   0  0  0  0  0  0  0  0  0  0  0  0
   -1.8365   -1.2221   -0.8796 H   0  0  0  0  0  0  0  0  0  0  0  0
   -1.8004   -1.2140    0.8850 H   0  0  0  0  0  0  0  0  0  0  0  0
    1.9268    1.0166    0.8803 H   0  0  0  0  0  0  0  0  0  0  0  0
    1.9525    1.0051   -0.9052 H   0  0  0  0  0  0  0  0  0  0  0  0
   -3.1399    0.8976    0.9115 H   0  0  0  0  0  0  0  0  0  0  0  0
   -3.1770    0.8933   -0.8627 H   0  0  0  0  0  0  0  0  0  0  0  0
   -3.9789   -0.4003    0.0448 H   0  0  0  0  0  0  0  0  0  0  0  0
  1  3  1  0  0  0  0
  1  7  1  0  0  0  0
  2  3  2  0  0  0  0
  4  5  1  0  0  0  0
  4  6  1  0  0  0  0
  4  9  1  0  0  0  0
  4 10  1  0  0  0  0
  5  7  1  0  0  0  0
  5 11  1  0  0  0  0
  5 12  1  0  0  0  0
  6  8  1  0  0  0  0
  6 13  1  0  0  0  0
  6 14  1  0  0  0  0
  7 15  1  0  0  0  0
  7 16  1  0  0  0  0
  8 17  1  0  0  0  0
  8 18  1  0  0  0  0
  8 19  1  0  0  0  0
M  END
