DB01245
 OpenBabel07062211533D

 56 55  0  0  0  0  0  0  0  0999 V2000
    6.9484    0.0191   -0.0430 N   0  3  0  0  0  0  0  0  0  0  0  0
   -6.9419   -0.0328   -0.0267 N   0  3  0  0  0  0  0  0  0  0  0  0
    5.6979    0.8120    0.0201 C   0  0  0  0  0  0  0  0  0  0  0  0
   -5.6880   -0.8223   -0.0304 C   0  0  0  0  0  0  0  0  0  0  0  0
    4.4813   -0.1055    0.0619 C   0  0  0  0  0  0  0  0  0  0  0  0
   -4.4726    0.0965   -0.0120 C   0  0  0  0  0  0  0  0  0  0  0  0
    3.1507    0.6537    0.0777 C   0  0  0  0  0  0  0  0  0  0  0  0
   -3.1394   -0.6571   -0.0053 C   0  0  0  0  0  0  0  0  0  0  0  0
    1.9286   -0.2705    0.1306 C   0  0  0  0  0  0  0  0  0  0  0  0
   -1.9548    0.3129    0.0244 C   0  0  0  0  0  0  0  0  0  0  0  0
    0.5982    0.4847    0.0682 C   0  0  0  0  0  0  0  0  0  0  0  0
   -0.6233   -0.4403    0.0611 C   0  0  0  0  0  0  0  0  0  0  0  0
    7.0733   -0.9040    1.1779 C   0  0  0  0  0  0  0  0  0  0  0  0
    6.9784   -0.8554   -1.3050 C   0  0  0  0  0  0  0  0  0  0  0  0
    8.1784    0.9380   -0.0719 C   0  0  0  0  0  0  0  0  0  0  0  0
   -7.0603    0.8009    1.2576 C   0  0  0  0  0  0  0  0  0  0  0  0
   -6.9866    0.9289   -1.2233 C   0  0  0  0  0  0  0  0  0  0  0  0
   -8.1686   -0.9529   -0.1106 C   0  0  0  0  0  0  0  0  0  0  0  0
    5.6631    1.4651   -0.8603 H   0  0  0  0  0  0  0  0  0  0  0  0
    5.7375    1.4448    0.9151 H   0  0  0  0  0  0  0  0  0  0  0  0
   -5.6947   -1.4812    0.8462 H   0  0  0  0  0  0  0  0  0  0  0  0
   -5.6822   -1.4495   -0.9302 H   0  0  0  0  0  0  0  0  0  0  0  0
    4.4512   -0.7703   -0.8065 H   0  0  0  0  0  0  0  0  0  0  0  0
    4.4955   -0.7359    0.9568 H   0  0  0  0  0  0  0  0  0  0  0  0
   -4.4580    0.7478   -0.8918 H   0  0  0  0  0  0  0  0  0  0  0  0
   -4.4794    0.7411    0.8724 H   0  0  0  0  0  0  0  0  0  0  0  0
    3.1282    1.3293    0.9415 H   0  0  0  0  0  0  0  0  0  0  0  0
    3.0881    1.2826   -0.8191 H   0  0  0  0  0  0  0  0  0  0  0  0
   -3.0738   -1.2946   -0.8951 H   0  0  0  0  0  0  0  0  0  0  0  0
   -3.0983   -1.3167    0.8701 H   0  0  0  0  0  0  0  0  0  0  0  0
    1.9648   -0.8669    1.0503 H   0  0  0  0  0  0  0  0  0  0  0  0
    1.9773   -0.9766   -0.7076 H   0  0  0  0  0  0  0  0  0  0  0  0
   -2.0294    0.9633    0.9042 H   0  0  0  0  0  0  0  0  0  0  0  0
   -1.9852    0.9598   -0.8606 H   0  0  0  0  0  0  0  0  0  0  0  0
    0.5785    1.1084   -0.8340 H   0  0  0  0  0  0  0  0  0  0  0  0
    0.5314    1.1655    0.9258 H   0  0  0  0  0  0  0  0  0  0  0  0
   -0.5940   -1.0783    0.9531 H   0  0  0  0  0  0  0  0  0  0  0  0
   -0.5603   -1.1075   -0.8075 H   0  0  0  0  0  0  0  0  0  0  0  0
    6.9192   -0.3053    2.0804 H   0  0  0  0  0  0  0  0  0  0  0  0
    6.3445   -1.7150    1.1071 H   0  0  0  0  0  0  0  0  0  0  0  0
    8.0805   -1.3331    1.1772 H   0  0  0  0  0  0  0  0  0  0  0  0
    6.7440   -0.2254   -2.1678 H   0  0  0  0  0  0  0  0  0  0  0  0
    7.9859   -1.2717   -1.4052 H   0  0  0  0  0  0  0  0  0  0  0  0
    6.2673   -1.6786   -1.2058 H   0  0  0  0  0  0  0  0  0  0  0  0
    8.1041    1.5763   -0.9572 H   0  0  0  0  0  0  0  0  0  0  0  0
    8.1723    1.5420    0.8402 H   0  0  0  0  0  0  0  0  0  0  0  0
    9.0798    0.3199   -0.1177 H   0  0  0  0  0  0  0  0  0  0  0  0
   -6.9037    0.1390    2.1142 H   0  0  0  0  0  0  0  0  0  0  0  0
   -6.3298    1.6129    1.2434 H   0  0  0  0  0  0  0  0  0  0  0  0
   -8.0666    1.2306    1.2917 H   0  0  0  0  0  0  0  0  0  0  0  0
   -6.7535    0.3635   -2.1302 H   0  0  0  0  0  0  0  0  0  0  0  0
   -7.9979    1.3433   -1.2876 H   0  0  0  0  0  0  0  0  0  0  0  0
   -6.2814    1.7491   -1.0683 H   0  0  0  0  0  0  0  0  0  0  0  0
   -8.1029   -1.5224   -1.0423 H   0  0  0  0  0  0  0  0  0  0  0  0
   -8.1488   -1.6237    0.7532 H   0  0  0  0  0  0  0  0  0  0  0  0
   -9.0730   -0.3375   -0.0991 H   0  0  0  0  0  0  0  0  0  0  0  0
  1  3  1  0  0  0  0
  1 13  1  0  0  0  0
  1 14  1  0  0  0  0
  1 15  1  0  0  0  0
  2  4  1  0  0  0  0
  2 16  1  0  0  0  0
  2 17  1  0  0  0  0
  2 18  1  0  0  0  0
  3  5  1  0  0  0  0
  3 19  1  0  0  0  0
  3 20  1  0  0  0  0
  4  6  1  0  0  0  0
  4 21  1  0  0  0  0
  4 22  1  0  0  0  0
  5  7  1  0  0  0  0
  5 23  1  0  0  0  0
  5 24  1  0  0  0  0
  6  8  1  0  0  0  0
  6 25  1  0  0  0  0
  6 26  1  0  0  0  0
  7  9  1  0  0  0  0
  7 27  1  0  0  0  0
  7 28  1  0  0  0  0
  8 10  1  0  0  0  0
  8 29  1  0  0  0  0
  8 30  1  0  0  0  0
  9 11  1  0  0  0  0
  9 31  1  0  0  0  0
  9 32  1  0  0  0  0
 10 12  1  0  0  0  0
 10 33  1  0  0  0  0
 10 34  1  0  0  0  0
 11 12  1  0  0  0  0
 11 35  1  0  0  0  0
 11 36  1  0  0  0  0
 12 37  1  0  0  0  0
 12 38  1  0  0  0  0
 13 39  1  0  0  0  0
 13 40  1  0  0  0  0
 13 41  1  0  0  0  0
 14 42  1  0  0  0  0
 14 43  1  0  0  0  0
 14 44  1  0  0  0  0
 15 45  1  0  0  0  0
 15 46  1  0  0  0  0
 15 47  1  0  0  0  0
 16 48  1  0  0  0  0
 16 49  1  0  0  0  0
 16 50  1  0  0  0  0
 17 51  1  0  0  0  0
 17 52  1  0  0  0  0
 17 53  1  0  0  0  0
 18 54  1  0  0  0  0
 18 55  1  0  0  0  0
 18 56  1  0  0  0  0
M  CHG  2   1   1   2   1
M  END
