DB01364
 OpenBabel07062211533D

 27 27  0  0  1  0  0  0  0  0999 V2000
    0.7218    0.6538   -1.6924 O   0  0  0  0  0  0  0  0  0  0  0  0
    2.7445    0.2199    0.3345 N   0  0  0  0  0  0  0  0  0  0  0  0
    1.3098    0.2716    0.6432 C   0  0  2  0  0  0  0  0  0  0  0  0
    0.4995   -0.2159   -0.5790 C   0  0  1  0  0  0  0  0  0  0  0  0
   -0.9955   -0.2500   -0.3431 C   0  0  0  0  0  0  0  0  0  0  0  0
    0.9644    1.7072    1.0430 C   0  0  0  0  0  0  0  0  0  0  0  0
   -1.5738   -1.4031    0.1580 C   0  0  0  0  0  0  0  0  0  0  0  0
   -1.7507    0.8729   -0.6333 C   0  0  0  0  0  0  0  0  0  0  0  0
    3.1360   -1.1267   -0.0433 C   0  0  0  0  0  0  0  0  0  0  0  0
   -2.9512   -1.4345    0.3757 C   0  0  0  0  0  0  0  0  0  0  0  0
   -3.1281    0.8413   -0.4156 C   0  0  0  0  0  0  0  0  0  0  0  0
   -3.7283   -0.3125    0.0889 C   0  0  0  0  0  0  0  0  0  0  0  0
    1.1039   -0.3734    1.5075 H   0  0  0  0  0  0  0  0  0  0  0  0
    0.7821   -1.2235   -0.9021 H   0  0  0  0  0  0  0  0  0  0  0  0
   -0.0608    1.7834    1.4176 H   0  0  0  0  0  0  0  0  0  0  0  0
    1.6170    2.0468    1.8565 H   0  0  0  0  0  0  0  0  0  0  0  0
    1.0830    2.4111    0.2121 H   0  0  0  0  0  0  0  0  0  0  0  0
    2.9796    0.8738   -0.4105 H   0  0  0  0  0  0  0  0  0  0  0  0
   -0.9760   -2.2806    0.3869 H   0  0  0  0  0  0  0  0  0  0  0  0
   -1.3112    1.7889   -1.0162 H   0  0  0  0  0  0  0  0  0  0  0  0
    1.6523    0.5611   -1.9569 H   0  0  0  0  0  0  0  0  0  0  0  0
    2.8753   -1.3719   -1.0773 H   0  0  0  0  0  0  0  0  0  0  0  0
    2.7315   -1.8874    0.6332 H   0  0  0  0  0  0  0  0  0  0  0  0
    4.2273   -1.1993    0.0200 H   0  0  0  0  0  0  0  0  0  0  0  0
   -3.4184   -2.3324    0.7695 H   0  0  0  0  0  0  0  0  0  0  0  0
   -3.7333    1.7159   -0.6362 H   0  0  0  0  0  0  0  0  0  0  0  0
   -4.8007   -0.3366    0.2593 H   0  0  0  0  0  0  0  0  0  0  0  0
  1  4  1  0  0  0  0
  1 21  1  0  0  0  0
  2  3  1  0  0  0  0
  2  9  1  0  0  0  0
  2 18  1  0  0  0  0
  3  4  1  0  0  0  0
  3  6  1  0  0  0  0
  3 13  1  1  0  0  0
  4  5  1  0  0  0  0
  4 14  1  6  0  0  0
  5  7  2  0  0  0  0
  5  8  1  0  0  0  0
  6 15  1  0  0  0  0
  6 16  1  0  0  0  0
  6 17  1  0  0  0  0
  7 10  1  0  0  0  0
  7 19  1  0  0  0  0
  8 11  2  0  0  0  0
  8 20  1  0  0  0  0
  9 22  1  0  0  0  0
  9 23  1  0  0  0  0
  9 24  1  0  0  0  0
 10 12  2  0  0  0  0
 10 25  1  0  0  0  0
 11 12  1  0  0  0  0
 11 26  1  0  0  0  0
 12 27  1  0  0  0  0
M  END
