DB01174
 OpenBabel07062211533D

 29 30  0  0  0  0  0  0  0  0999 V2000
    0.8159   -0.0728   -2.4069 O   0  0  0  0  0  0  0  0  0  0  0  0
    0.8244   -0.2332    2.3841 O   0  0  0  0  0  0  0  0  0  0  0  0
    2.8566    3.1762    0.0964 O   0  0  0  0  0  0  0  0  0  0  0  0
    1.7937    1.5524   -1.1282 N   0  0  0  0  0  0  0  0  0  0  0  0
    1.7953    1.4756    1.2136 N   0  0  0  0  0  0  0  0  0  0  0  0
    0.4732   -0.2179   -0.0129 C   0  0  0  0  0  0  0  0  0  0  0  0
    0.7781   -1.7216   -0.0635 C   0  0  0  0  0  0  0  0  0  0  0  0
   -1.0175   -0.0269   -0.0045 C   0  0  0  0  0  0  0  0  0  0  0  0
    1.0416    0.4030   -1.2923 C   0  0  0  0  0  0  0  0  0  0  0  0
    1.0455    0.3167    1.3029 C   0  0  0  0  0  0  0  0  0  0  0  0
    2.2699   -1.9764   -0.0408 C   0  0  0  0  0  0  0  0  0  0  0  0
   -1.5446    1.2581   -0.0359 C   0  0  0  0  0  0  0  0  0  0  0  0
   -1.8513   -1.1375    0.0342 C   0  0  0  0  0  0  0  0  0  0  0  0
    2.1872    2.1421    0.0629 C   0  0  0  0  0  0  0  0  0  0  0  0
   -2.9281    1.4354   -0.0284 C   0  0  0  0  0  0  0  0  0  0  0  0
   -3.2348   -0.9599    0.0415 C   0  0  0  0  0  0  0  0  0  0  0  0
   -3.7731    0.3266    0.0102 C   0  0  0  0  0  0  0  0  0  0  0  0
    0.3842   -2.1976   -0.9719 H   0  0  0  0  0  0  0  0  0  0  0  0
    0.3775   -2.2583    0.8074 H   0  0  0  0  0  0  0  0  0  0  0  0
    2.7842   -1.5280   -0.8963 H   0  0  0  0  0  0  0  0  0  0  0  0
    2.7466   -1.6135    0.8746 H   0  0  0  0  0  0  0  0  0  0  0  0
    2.4576   -3.0552   -0.0880 H   0  0  0  0  0  0  0  0  0  0  0  0
    2.1207    2.0004   -1.9799 H   0  0  0  0  0  0  0  0  0  0  0  0
    2.1240    1.8665    2.0922 H   0  0  0  0  0  0  0  0  0  0  0  0
   -0.9069    2.1364   -0.0630 H   0  0  0  0  0  0  0  0  0  0  0  0
   -1.5274   -2.1699    0.0571 H   0  0  0  0  0  0  0  0  0  0  0  0
   -3.3474    2.4370   -0.0518 H   0  0  0  0  0  0  0  0  0  0  0  0
   -3.8945   -1.8223    0.0710 H   0  0  0  0  0  0  0  0  0  0  0  0
   -4.8504    0.4647    0.0161 H   0  0  0  0  0  0  0  0  0  0  0  0
  1  9  2  0  0  0  0
  2 10  2  0  0  0  0
  3 14  2  0  0  0  0
  4  9  1  0  0  0  0
  4 14  1  0  0  0  0
  4 23  1  0  0  0  0
  5 10  1  0  0  0  0
  5 14  1  0  0  0  0
  5 24  1  0  0  0  0
  6  7  1  0  0  0  0
  6  8  1  0  0  0  0
  6  9  1  0  0  0  0
  6 10  1  0  0  0  0
  7 11  1  0  0  0  0
  7 18  1  0  0  0  0
  7 19  1  0  0  0  0
  8 12  2  0  0  0  0
  8 13  1  0  0  0  0
 11 20  1  0  0  0  0
 11 21  1  0  0  0  0
 11 22  1  0  0  0  0
 12 15  1  0  0  0  0
 12 25  1  0  0  0  0
 13 16  2  0  0  0  0
 13 26  1  0  0  0  0
 15 17  2  0  0  0  0
 15 27  1  0  0  0  0
 16 17  1  0  0  0  0
 16 28  1  0  0  0  0
 17 29  1  0  0  0  0
M  END
