DB01081
 OpenBabel07062211533D

 66 69  0  0  0  0  0  0  0  0999 V2000
    4.8330   -1.5484   -0.4989 O   0  0  0  0  0  0  0  0  0  0  0  0
    4.5675   -2.1169    1.7242 O   0  0  0  0  0  0  0  0  0  0  0  0
    0.1687   -0.3593    1.1699 N   0  0  0  0  0  0  0  0  0  0  0  0
   -4.2559    0.4644    3.2544 N   0  0  0  0  0  0  0  0  0  0  0  0
    3.1126   -0.4776    0.6947 C   0  0  0  0  0  0  0  0  0  0  0  0
    2.4519   -0.4575    2.0991 C   0  0  0  0  0  0  0  0  0  0  0  0
    2.0538   -1.0575   -0.2813 C   0  0  0  0  0  0  0  0  0  0  0  0
    1.1060    0.2731    2.1044 C   0  0  0  0  0  0  0  0  0  0  0  0
    0.6958   -0.3478   -0.1991 C   0  0  0  0  0  0  0  0  0  0  0  0
   -1.1359    0.2994    1.2245 C   0  0  0  0  0  0  0  0  0  0  0  0
    3.7111    0.8832    0.3089 C   0  0  0  0  0  0  0  0  0  0  0  0
    4.2469   -1.4798    0.7301 C   0  0  0  0  0  0  0  0  0  0  0  0
   -2.2281   -0.6542    0.7073 C   0  0  0  0  0  0  0  0  0  0  0  0
   -3.6893   -0.0681    0.7146 C   0  0  0  0  0  0  0  0  0  0  0  0
    3.2751    1.5353   -0.8447 C   0  0  0  0  0  0  0  0  0  0  0  0
    4.6911    1.4668    1.1119 C   0  0  0  0  0  0  0  0  0  0  0  0
   -3.7226    1.1747   -0.2081 C   0  0  0  0  0  0  0  0  0  0  0  0
   -4.7576   -1.0887    0.2393 C   0  0  0  0  0  0  0  0  0  0  0  0
    3.8192    2.7710   -1.1949 C   0  0  0  0  0  0  0  0  0  0  0  0
    5.2349    2.7026    0.7616 C   0  0  0  0  0  0  0  0  0  0  0  0
   -4.0086    0.2404    2.1423 C   0  0  0  0  0  0  0  0  0  0  0  0
    4.7990    3.3546   -0.3918 C   0  0  0  0  0  0  0  0  0  0  0  0
    5.9280   -2.4635   -0.6078 C   0  0  0  0  0  0  0  0  0  0  0  0
   -4.0304    2.4281    0.3211 C   0  0  0  0  0  0  0  0  0  0  0  0
   -4.3660   -2.3486   -0.2137 C   0  0  0  0  0  0  0  0  0  0  0  0
   -3.4445    1.0412   -1.5685 C   0  0  0  0  0  0  0  0  0  0  0  0
   -6.1095   -0.7458    0.2645 C   0  0  0  0  0  0  0  0  0  0  0  0
    6.4656   -2.4232   -2.0224 C   0  0  0  0  0  0  0  0  0  0  0  0
   -4.0602    3.5480   -0.5100 C   0  0  0  0  0  0  0  0  0  0  0  0
   -5.3264   -3.2655   -0.6412 C   0  0  0  0  0  0  0  0  0  0  0  0
   -3.4742    2.1611   -2.3995 C   0  0  0  0  0  0  0  0  0  0  0  0
   -7.0697   -1.6627   -0.1629 C   0  0  0  0  0  0  0  0  0  0  0  0
   -3.7821    3.4145   -1.8701 C   0  0  0  0  0  0  0  0  0  0  0  0
   -6.6782   -2.9224   -0.6158 C   0  0  0  0  0  0  0  0  0  0  0  0
    3.1084   -0.0005    2.8494 H   0  0  0  0  0  0  0  0  0  0  0  0
    2.2750   -1.4851    2.4493 H   0  0  0  0  0  0  0  0  0  0  0  0
    1.8915   -2.1202   -0.0442 H   0  0  0  0  0  0  0  0  0  0  0  0
    2.4081   -1.0548   -1.3201 H   0  0  0  0  0  0  0  0  0  0  0  0
    0.7042    0.2206    3.1240 H   0  0  0  0  0  0  0  0  0  0  0  0
    1.2475    1.3351    1.8666 H   0  0  0  0  0  0  0  0  0  0  0  0
    0.0265   -0.8884   -0.8764 H   0  0  0  0  0  0  0  0  0  0  0  0
    0.7468    0.6780   -0.5747 H   0  0  0  0  0  0  0  0  0  0  0  0
   -1.1244    1.2472    0.6737 H   0  0  0  0  0  0  0  0  0  0  0  0
   -1.3732    0.5472    2.2661 H   0  0  0  0  0  0  0  0  0  0  0  0
   -1.9752   -0.9728   -0.3095 H   0  0  0  0  0  0  0  0  0  0  0  0
   -2.1960   -1.5575    1.3356 H   0  0  0  0  0  0  0  0  0  0  0  0
    2.5536    1.1159   -1.5336 H   0  0  0  0  0  0  0  0  0  0  0  0
    5.0518    0.9741    2.0104 H   0  0  0  0  0  0  0  0  0  0  0  0
    3.4882    3.2747   -2.0985 H   0  0  0  0  0  0  0  0  0  0  0  0
    5.9996    3.1561    1.3854 H   0  0  0  0  0  0  0  0  0  0  0  0
    5.2247    4.3154   -0.6662 H   0  0  0  0  0  0  0  0  0  0  0  0
    5.5822   -3.4760   -0.3718 H   0  0  0  0  0  0  0  0  0  0  0  0
    6.7162   -2.1746    0.0963 H   0  0  0  0  0  0  0  0  0  0  0  0
   -4.2535    2.5860    1.3706 H   0  0  0  0  0  0  0  0  0  0  0  0
   -3.3322   -2.6705   -0.2583 H   0  0  0  0  0  0  0  0  0  0  0  0
   -3.2060    0.0753   -2.0047 H   0  0  0  0  0  0  0  0  0  0  0  0
   -6.4378    0.2307    0.6107 H   0  0  0  0  0  0  0  0  0  0  0  0
    6.7980   -1.4119   -2.2791 H   0  0  0  0  0  0  0  0  0  0  0  0
    5.6831   -2.6919   -2.7396 H   0  0  0  0  0  0  0  0  0  0  0  0
    7.3062   -3.1124   -2.1413 H   0  0  0  0  0  0  0  0  0  0  0  0
   -4.2997    4.5243   -0.0986 H   0  0  0  0  0  0  0  0  0  0  0  0
   -5.0225   -4.2464   -0.9947 H   0  0  0  0  0  0  0  0  0  0  0  0
   -3.2585    2.0573   -3.4589 H   0  0  0  0  0  0  0  0  0  0  0  0
   -8.1223   -1.3957   -0.1439 H   0  0  0  0  0  0  0  0  0  0  0  0
   -3.8053    4.2863   -2.5172 H   0  0  0  0  0  0  0  0  0  0  0  0
   -7.4258   -3.6363   -0.9490 H   0  0  0  0  0  0  0  0  0  0  0  0
  1 12  1  0  0  0  0
  1 23  1  0  0  0  0
  2 12  2  0  0  0  0
  3  8  1  0  0  0  0
  3  9  1  0  0  0  0
  3 10  1  0  0  0  0
  4 21  3  0  0  0  0
  5  6  1  0  0  0  0
  5  7  1  0  0  0  0
  5 11  1  0  0  0  0
  5 12  1  0  0  0  0
  6  8  1  0  0  0  0
  6 35  1  0  0  0  0
  6 36  1  0  0  0  0
  7  9  1  0  0  0  0
  7 37  1  0  0  0  0
  7 38  1  0  0  0  0
  8 39  1  0  0  0  0
  8 40  1  0  0  0  0
  9 41  1  0  0  0  0
  9 42  1  0  0  0  0
 10 13  1  0  0  0  0
 10 43  1  0  0  0  0
 10 44  1  0  0  0  0
 11 15  2  0  0  0  0
 11 16  1  0  0  0  0
 13 14  1  0  0  0  0
 13 45  1  0  0  0  0
 13 46  1  0  0  0  0
 14 17  1  0  0  0  0
 14 18  1  0  0  0  0
 14 21  1  0  0  0  0
 15 19  1  0  0  0  0
 15 47  1  0  0  0  0
 16 20  2  0  0  0  0
 16 48  1  0  0  0  0
 17 24  2  0  0  0  0
 17 26  1  0  0  0  0
 18 25  2  0  0  0  0
 18 27  1  0  0  0  0
 19 22  2  0  0  0  0
 19 49  1  0  0  0  0
 20 22  1  0  0  0  0
 20 50  1  0  0  0  0
 22 51  1  0  0  0  0
 23 28  1  0  0  0  0
 23 52  1  0  0  0  0
 23 53  1  0  0  0  0
 24 29  1  0  0  0  0
 24 54  1  0  0  0  0
 25 30  1  0  0  0  0
 25 55  1  0  0  0  0
 26 31  2  0  0  0  0
 26 56  1  0  0  0  0
 27 32  2  0  0  0  0
 27 57  1  0  0  0  0
 28 58  1  0  0  0  0
 28 59  1  0  0  0  0
 28 60  1  0  0  0  0
 29 33  2  0  0  0  0
 29 61  1  0  0  0  0
 30 34  2  0  0  0  0
 30 62  1  0  0  0  0
 31 33  1  0  0  0  0
 31 63  1  0  0  0  0
 32 34  1  0  0  0  0
 32 64  1  0  0  0  0
 33 65  1  0  0  0  0
 34 66  1  0  0  0  0
M  END
