DB01159
 OpenBabel07062211533D

  8  7  0  0  1  0  0  0  0  0999 V2000
   -1.6361    1.4867   -0.4412 Br  0  0  0  0  0  0  0  0  0  0  0  0
   -1.3702   -1.5304   -0.5645 Cl  0  0  0  0  0  0  0  0  0  0  0  0
    1.4580   -1.0263    0.4250 F   0  0  0  0  0  0  0  0  0  0  0  0
    1.0522    0.1220   -1.3850 F   0  0  0  0  0  0  0  0  0  0  0  0
    1.3002    1.1396    0.5307 F   0  0  0  0  0  0  0  0  0  0  0  0
    0.7844    0.0403   -0.0641 C   0  0  0  0  0  0  0  0  0  0  0  0
   -0.6945   -0.0868    0.2129 C   0  0  1  0  0  0  0  0  0  0  0  0
   -0.8939   -0.1451    1.2862 H   0  0  0  0  0  0  0  0  0  0  0  0
  1  7  1  0  0  0  0
  2  7  1  0  0  0  0
  3  6  1  0  0  0  0
  4  6  1  0  0  0  0
  5  6  1  0  0  0  0
  6  7  1  0  0  0  0
  7  8  1  1  0  0  0
M  END
