DB01435
 OpenBabel07062211533D

 26 27  0  0  0  0  0  0  0  0999 V2000
   -0.2323    2.9872    0.0311 O   0  0  0  0  0  0  0  0  0  0  0  0
   -0.1799    0.6097   -0.0961 N   0  0  0  0  0  0  0  0  0  0  0  0
   -1.2133   -0.3391   -0.0231 N   0  0  0  0  0  0  0  0  0  0  0  0
   -2.3842    0.3573    0.2610 C   0  0  0  0  0  0  0  0  0  0  0  0
    1.1930    0.2807    0.0236 C   0  0  0  0  0  0  0  0  0  0  0  0
   -0.7480    1.8813    0.0324 C   0  0  0  0  0  0  0  0  0  0  0  0
   -2.1959    1.6826    0.2956 C   0  0  0  0  0  0  0  0  0  0  0  0
   -1.2122   -1.4462   -0.9736 C   0  0  0  0  0  0  0  0  0  0  0  0
   -3.6912   -0.3336    0.4401 C   0  0  0  0  0  0  0  0  0  0  0  0
    2.1743    1.2148   -0.3236 C   0  0  0  0  0  0  0  0  0  0  0  0
    1.5777   -0.9803    0.4904 C   0  0  0  0  0  0  0  0  0  0  0  0
    3.5259    0.8914   -0.2055 C   0  0  0  0  0  0  0  0  0  0  0  0
    2.9294   -1.3037    0.6086 C   0  0  0  0  0  0  0  0  0  0  0  0
    3.9035   -0.3677    0.2607 C   0  0  0  0  0  0  0  0  0  0  0  0
   -2.9122    2.4662    0.4703 H   0  0  0  0  0  0  0  0  0  0  0  0
   -0.2126   -1.8117   -1.2201 H   0  0  0  0  0  0  0  0  0  0  0  0
   -1.6814   -1.1398   -1.9158 H   0  0  0  0  0  0  0  0  0  0  0  0
   -1.7783   -2.2909   -0.5668 H   0  0  0  0  0  0  0  0  0  0  0  0
   -3.6225   -1.0773    1.2406 H   0  0  0  0  0  0  0  0  0  0  0  0
   -3.9941   -0.8411   -0.4812 H   0  0  0  0  0  0  0  0  0  0  0  0
   -4.4848    0.3718    0.7082 H   0  0  0  0  0  0  0  0  0  0  0  0
    1.9218    2.1945   -0.7164 H   0  0  0  0  0  0  0  0  0  0  0  0
    0.8523   -1.7234    0.8087 H   0  0  0  0  0  0  0  0  0  0  0  0
    4.2848    1.6175   -0.4820 H   0  0  0  0  0  0  0  0  0  0  0  0
    3.2241   -2.2810    0.9796 H   0  0  0  0  0  0  0  0  0  0  0  0
    4.9560   -0.6194    0.3534 H   0  0  0  0  0  0  0  0  0  0  0  0
  1  6  2  0  0  0  0
  2  3  2  0  0  0  0
  2  5  1  0  0  0  0
  2  6  1  0  0  0  0
  3  4  1  0  0  0  0
  3  8  1  0  0  0  0
  4  7  2  0  0  0  0
  4  9  1  0  0  0  0
  5 10  2  0  0  0  0
  5 11  1  0  0  0  0
  6  7  1  0  0  0  0
  7 15  1  0  0  0  0
  8 16  1  0  0  0  0
  8 17  1  0  0  0  0
  8 18  1  0  0  0  0
  9 19  1  0  0  0  0
  9 20  1  0  0  0  0
  9 21  1  0  0  0  0
 10 12  1  0  0  0  0
 10 22  1  0  0  0  0
 11 13  2  0  0  0  0
 11 23  1  0  0  0  0
 12 14  2  0  0  0  0
 12 24  1  0  0  0  0
 13 14  1  0  0  0  0
 13 25  1  0  0  0  0
 14 26  1  0  0  0  0
M  END
