DB01255
 OpenBabel07062211533D

 44 44  0  0  1  0  0  0  0  0999 V2000
   -1.2466    2.0723    1.6741 O   0  0  0  0  0  0  0  0  0  0  0  0
   -1.9442    0.8553   -0.1756 N   0  0  0  0  0  0  0  0  0  0  0  0
   -0.7135    4.0028   -0.4768 N   0  0  0  0  0  0  0  0  0  0  0  0
    4.9596   -0.7109    0.6881 N   0  0  0  0  0  0  0  0  0  0  0  0
    1.1642    2.4195   -0.0731 C   0  0  0  0  0  0  0  0  0  0  0  0
   -0.3010    2.6008   -0.4967 C   0  0  1  0  0  0  0  0  0  0  0  0
   -2.8622   -0.0238    0.5124 C   0  0  2  0  0  0  0  0  0  0  0  0
    1.6301    0.9601   -0.1044 C   0  0  0  0  0  0  0  0  0  0  0  0
   -2.9582   -1.3894   -0.1856 C   0  0  0  0  0  0  0  0  0  0  0  0
    3.1053    0.8409    0.2881 C   0  0  0  0  0  0  0  0  0  0  0  0
   -1.2059    1.8391    0.4677 C   0  0  0  0  0  0  0  0  0  0  0  0
   -4.2353    0.6351    0.5993 C   0  0  0  0  0  0  0  0  0  0  0  0
   -1.6238   -2.0872   -0.3024 C   0  0  0  0  0  0  0  0  0  0  0  0
    3.5594   -0.6177    0.2926 C   0  0  0  0  0  0  0  0  0  0  0  0
   -0.8388   -1.8673   -1.4228 C   0  0  0  0  0  0  0  0  0  0  0  0
   -1.2091   -2.9337    0.7133 C   0  0  0  0  0  0  0  0  0  0  0  0
    0.3937   -2.5113   -1.5307 C   0  0  0  0  0  0  0  0  0  0  0  0
    0.0234   -3.5776    0.6053 C   0  0  0  0  0  0  0  0  0  0  0  0
    0.8248   -3.3665   -0.5167 C   0  0  0  0  0  0  0  0  0  0  0  0
    1.3140    2.8173    0.9397 H   0  0  0  0  0  0  0  0  0  0  0  0
    1.8044    3.0123   -0.7395 H   0  0  0  0  0  0  0  0  0  0  0  0
   -0.4258    2.2255   -1.5184 H   0  0  0  0  0  0  0  0  0  0  0  0
   -2.4866   -0.1690    1.5334 H   0  0  0  0  0  0  0  0  0  0  0  0
    1.0279    0.3554    0.5832 H   0  0  0  0  0  0  0  0  0  0  0  0
    1.4845    0.5521   -1.1116 H   0  0  0  0  0  0  0  0  0  0  0  0
   -3.6599   -2.0370    0.3566 H   0  0  0  0  0  0  0  0  0  0  0  0
   -3.3859   -1.2710   -1.1908 H   0  0  0  0  0  0  0  0  0  0  0  0
    3.7178    1.4210   -0.4135 H   0  0  0  0  0  0  0  0  0  0  0  0
    3.2524    1.2784    1.2837 H   0  0  0  0  0  0  0  0  0  0  0  0
   -1.9105    0.7974   -1.1888 H   0  0  0  0  0  0  0  0  0  0  0  0
   -4.6448    0.8331   -0.3976 H   0  0  0  0  0  0  0  0  0  0  0  0
   -4.9422   -0.0041    1.1383 H   0  0  0  0  0  0  0  0  0  0  0  0
   -4.1785    1.5935    1.1271 H   0  0  0  0  0  0  0  0  0  0  0  0
    2.9522   -1.2050    0.9896 H   0  0  0  0  0  0  0  0  0  0  0  0
    3.4379   -1.0585   -0.7026 H   0  0  0  0  0  0  0  0  0  0  0  0
   -0.5431    4.3982    0.4476 H   0  0  0  0  0  0  0  0  0  0  0  0
   -0.1256    4.5366   -1.1164 H   0  0  0  0  0  0  0  0  0  0  0  0
   -1.1649   -1.2084   -2.2222 H   0  0  0  0  0  0  0  0  0  0  0  0
   -1.8253   -3.1021    1.5918 H   0  0  0  0  0  0  0  0  0  0  0  0
    5.0835   -0.2942    1.6102 H   0  0  0  0  0  0  0  0  0  0  0  0
    5.5326   -0.1573    0.0521 H   0  0  0  0  0  0  0  0  0  0  0  0
    1.0184   -2.3460   -2.4037 H   0  0  0  0  0  0  0  0  0  0  0  0
    0.3600   -4.2422    1.3956 H   0  0  0  0  0  0  0  0  0  0  0  0
    1.7855   -3.8663   -0.5998 H   0  0  0  0  0  0  0  0  0  0  0  0
  1 11  2  0  0  0  0
  2  7  1  0  0  0  0
  2 11  1  0  0  0  0
  2 30  1  0  0  0  0
  3  6  1  0  0  0  0
  3 36  1  0  0  0  0
  3 37  1  0  0  0  0
  4 14  1  0  0  0  0
  4 40  1  0  0  0  0
  4 41  1  0  0  0  0
  5  6  1  0  0  0  0
  5  8  1  0  0  0  0
  5 20  1  0  0  0  0
  5 21  1  0  0  0  0
  6 11  1  0  0  0  0
  6 22  1  6  0  0  0
  7  9  1  0  0  0  0
  7 12  1  0  0  0  0
  7 23  1  1  0  0  0
  8 10  1  0  0  0  0
  8 24  1  0  0  0  0
  8 25  1  0  0  0  0
  9 13  1  0  0  0  0
  9 26  1  0  0  0  0
  9 27  1  0  0  0  0
 10 14  1  0  0  0  0
 10 28  1  0  0  0  0
 10 29  1  0  0  0  0
 12 31  1  0  0  0  0
 12 32  1  0  0  0  0
 12 33  1  0  0  0  0
 13 15  2  0  0  0  0
 13 16  1  0  0  0  0
 14 34  1  0  0  0  0
 14 35  1  0  0  0  0
 15 17  1  0  0  0  0
 15 38  1  0  0  0  0
 16 18  2  0  0  0  0
 16 39  1  0  0  0  0
 17 19  2  0  0  0  0
 17 42  1  0  0  0  0
 18 19  1  0  0  0  0
 18 43  1  0  0  0  0
 19 44  1  0  0  0  0
M  END
