DB01280
 OpenBabel07062211533D

 36 38  0  0  1  0  0  0  0  0999 V2000
    1.7463   -0.0809    1.1936 O   0  0  0  0  0  0  0  0  0  0  0  0
    1.4713   -0.5699   -1.7859 O   0  0  0  0  0  0  0  0  0  0  0  0
    4.3906   -1.3907    0.1554 O   0  0  0  0  0  0  0  0  0  0  0  0
    2.1444    2.6751    1.1335 O   0  0  0  0  0  0  0  0  0  0  0  0
   -4.5486   -1.1155    0.0450 O   0  0  0  0  0  0  0  0  0  0  0  0
    0.0268   -1.5441    0.4390 N   0  0  0  0  0  0  0  0  0  0  0  0
   -1.9222   -2.6375    0.3966 N   0  0  0  0  0  0  0  0  0  0  0  0
   -0.7753    0.7320    0.1523 N   0  0  0  0  0  0  0  0  0  0  0  0
   -3.2071    0.8031   -0.0414 N   0  0  0  0  0  0  0  0  0  0  0  0
   -1.9152    2.7550   -0.1355 N   0  0  0  0  0  0  0  0  0  0  0  0
    2.2103   -1.2850   -0.8040 C   0  0  2  0  0  0  0  0  0  0  0  0
    1.4658   -1.3241    0.5272 C   0  0  1  0  0  0  0  0  0  0  0  0
    3.4494   -0.4956   -0.4332 C   0  0  1  0  0  0  0  0  0  0  0  0
    2.9492    0.4826    0.6316 C   0  0  1  0  0  0  0  0  0  0  0  0
    2.6044    1.8561    0.0728 C   0  0  0  0  0  0  0  0  0  0  0  0
   -0.9446   -0.5935    0.2704 C   0  0  0  0  0  0  0  0  0  0  0  0
   -0.6157   -2.7561    0.5085 C   0  0  0  0  0  0  0  0  0  0  0  0
   -2.1418   -1.2911    0.2474 C   0  0  0  0  0  0  0  0  0  0  0  0
   -3.3030   -0.5424    0.0845 C   0  0  0  0  0  0  0  0  0  0  0  0
   -1.9674    1.3487   -0.0003 C   0  0  0  0  0  0  0  0  0  0  0  0
   -5.6518   -0.2349   -0.1265 C   0  0  0  0  0  0  0  0  0  0  0  0
    2.4112   -2.2928   -1.1811 H   0  0  0  0  0  0  0  0  0  0  0  0
    1.8702   -2.1167    1.1697 H   0  0  0  0  0  0  0  0  0  0  0  0
    3.9311    0.0011   -1.2811 H   0  0  0  0  0  0  0  0  0  0  0  0
    3.6609    0.5896    1.4584 H   0  0  0  0  0  0  0  0  0  0  0  0
    1.8061    1.8019   -0.6726 H   0  0  0  0  0  0  0  0  0  0  0  0
    3.4846    2.3258   -0.3768 H   0  0  0  0  0  0  0  0  0  0  0  0
    2.0194   -0.5258   -2.5879 H   0  0  0  0  0  0  0  0  0  0  0  0
    5.1612   -0.8638    0.4275 H   0  0  0  0  0  0  0  0  0  0  0  0
   -0.0779   -3.6851    0.6393 H   0  0  0  0  0  0  0  0  0  0  0  0
    1.9319    3.5445    0.7534 H   0  0  0  0  0  0  0  0  0  0  0  0
   -1.0194    3.2226   -0.1138 H   0  0  0  0  0  0  0  0  0  0  0  0
   -2.7740    3.2747   -0.2535 H   0  0  0  0  0  0  0  0  0  0  0  0
   -5.7213    0.4726    0.7066 H   0  0  0  0  0  0  0  0  0  0  0  0
   -6.5657   -0.8360   -0.1374 H   0  0  0  0  0  0  0  0  0  0  0  0
   -5.5840    0.2962   -1.0819 H   0  0  0  0  0  0  0  0  0  0  0  0
  1 12  1  0  0  0  0
  1 14  1  0  0  0  0
  2 11  1  0  0  0  0
  2 28  1  0  0  0  0
  3 13  1  0  0  0  0
  3 29  1  0  0  0  0
  4 15  1  0  0  0  0
  4 31  1  0  0  0  0
  5 19  1  0  0  0  0
  5 21  1  0  0  0  0
  6 12  1  0  0  0  0
  6 16  1  0  0  0  0
  6 17  2  0  0  0  0
  7 17  1  0  0  0  0
  7 18  2  0  0  0  0
  8 16  2  0  0  0  0
  8 20  1  0  0  0  0
  9 19  1  0  0  0  0
  9 20  2  0  0  0  0
 10 20  1  0  0  0  0
 10 32  1  0  0  0  0
 10 33  1  0  0  0  0
 11 12  1  1  0  0  0
 11 22  1  0  0  0  0
 12 23  1  1  0  0  0
 13 11  1  6  0  0  0
 13 24  1  0  0  0  0
 14 13  1  6  0  0  0
 14 15  1  0  0  0  0
 14 25  1  0  0  0  0
 15 26  1  0  0  0  0
 15 27  1  0  0  0  0
 16 18  1  0  0  0  0
 17 30  1  0  0  0  0
 18 19  2  0  0  0  0
 21 34  1  0  0  0  0
 21 35  1  0  0  0  0
 21 36  1  0  0  0  0
M  END
