DB01399
 OpenBabel07062211533D

 29 30  0  0  0  0  0  0  0  0999 V2000
   -0.3329   -0.6218    0.4674 O   0  0  0  0  0  0  0  0  0  0  0  0
    2.3685    1.5701   -1.7284 O   0  0  0  0  0  0  0  0  0  0  0  0
    0.0149    0.1717   -1.6972 O   0  0  0  0  0  0  0  0  0  0  0  0
   -2.4334    2.8838    0.6468 O   0  0  0  0  0  0  0  0  0  0  0  0
   -0.8185    1.7549    1.7800 O   0  0  0  0  0  0  0  0  0  0  0  0
   -1.7062   -0.5934    0.2099 C   0  0  0  0  0  0  0  0  0  0  0  0
    1.8692   -0.2615   -0.2620 C   0  0  0  0  0  0  0  0  0  0  0  0
   -2.4271    0.5481    0.4838 C   0  0  0  0  0  0  0  0  0  0  0  0
    2.7797    0.6265   -0.8350 C   0  0  0  0  0  0  0  0  0  0  0  0
   -2.2870   -1.7272   -0.3165 C   0  0  0  0  0  0  0  0  0  0  0  0
    0.4545   -0.2052   -0.6030 C   0  0  0  0  0  0  0  0  0  0  0  0
   -3.7965    0.5571    0.2188 C   0  0  0  0  0  0  0  0  0  0  0  0
    2.3100   -1.2210    0.6495 C   0  0  0  0  0  0  0  0  0  0  0  0
   -3.6564   -1.7181   -0.5816 C   0  0  0  0  0  0  0  0  0  0  0  0
   -4.4112   -0.5760   -0.3139 C   0  0  0  0  0  0  0  0  0  0  0  0
    4.1310    0.5548   -0.4967 C   0  0  0  0  0  0  0  0  0  0  0  0
    3.6612   -1.2926    0.9879 C   0  0  0  0  0  0  0  0  0  0  0  0
    4.5718   -0.4048    0.4148 C   0  0  0  0  0  0  0  0  0  0  0  0
   -1.8047    1.7424    1.0380 C   0  0  0  0  0  0  0  0  0  0  0  0
   -1.7003   -2.6167   -0.5243 H   0  0  0  0  0  0  0  0  0  0  0  0
   -4.4138    1.4268    0.4280 H   0  0  0  0  0  0  0  0  0  0  0  0
    1.6292   -1.9371    1.1025 H   0  0  0  0  0  0  0  0  0  0  0  0
   -4.1352   -2.6007   -0.9957 H   0  0  0  0  0  0  0  0  0  0  0  0
   -5.4780   -0.5705   -0.5177 H   0  0  0  0  0  0  0  0  0  0  0  0
    4.8517    1.2396   -0.9355 H   0  0  0  0  0  0  0  0  0  0  0  0
    4.0055   -2.0419    1.6948 H   0  0  0  0  0  0  0  0  0  0  0  0
    5.6241   -0.4615    0.6776 H   0  0  0  0  0  0  0  0  0  0  0  0
    3.1374    2.0912   -2.0165 H   0  0  0  0  0  0  0  0  0  0  0  0
   -2.0074    3.6830    1.0241 H   0  0  0  0  0  0  0  0  0  0  0  0
  1  6  1  0  0  0  0
  1 11  1  0  0  0  0
  2  9  1  0  0  0  0
  2 28  1  0  0  0  0
  3 11  2  0  0  0  0
  4 19  1  0  0  0  0
  4 29  1  0  0  0  0
  5 19  2  0  0  0  0
  6  8  2  0  0  0  0
  6 10  1  0  0  0  0
  7  9  2  0  0  0  0
  7 11  1  0  0  0  0
  7 13  1  0  0  0  0
  8 12  1  0  0  0  0
  8 19  1  0  0  0  0
  9 16  1  0  0  0  0
 10 14  2  0  0  0  0
 10 20  1  0  0  0  0
 12 15  2  0  0  0  0
 12 21  1  0  0  0  0
 13 17  2  0  0  0  0
 13 22  1  0  0  0  0
 14 15  1  0  0  0  0
 14 23  1  0  0  0  0
 15 24  1  0  0  0  0
 16 18  2  0  0  0  0
 16 25  1  0  0  0  0
 17 18  1  0  0  0  0
 17 26  1  0  0  0  0
 18 27  1  0  0  0  0
M  END
