DB01353
 OpenBabel07062211533D

 31 31  0  0  0  0  0  0  0  0999 V2000
   -0.3775   -1.0680    2.3224 O   0  0  0  0  0  0  0  0  0  0  0  0
   -0.7084    0.3799   -2.1324 O   0  0  0  0  0  0  0  0  0  0  0  0
   -3.2297   -3.1408   -0.6144 O   0  0  0  0  0  0  0  0  0  0  0  0
   -1.8741   -2.0382    0.8796 N   0  0  0  0  0  0  0  0  0  0  0  0
   -2.0389   -1.3153   -1.3458 N   0  0  0  0  0  0  0  0  0  0  0  0
   -0.8855    0.1236    0.2725 C   0  0  0  0  0  0  0  0  0  0  0  0
    0.5054    0.7660    0.3779 C   0  0  0  0  0  0  0  0  0  0  0  0
   -1.9534    1.1522    0.6859 C   0  0  0  0  0  0  0  0  0  0  0  0
    1.5956   -0.2322    0.0115 C   0  0  0  0  0  0  0  0  0  0  0  0
   -0.9846   -1.0414    1.2521 C   0  0  0  0  0  0  0  0  0  0  0  0
   -1.1650   -0.2513   -1.1795 C   0  0  0  0  0  0  0  0  0  0  0  0
    2.9760    0.4194    0.0887 C   0  0  0  0  0  0  0  0  0  0  0  0
   -1.9547    2.3376   -0.2528 C   0  0  0  0  0  0  0  0  0  0  0  0
   -2.4491   -2.2186   -0.3726 C   0  0  0  0  0  0  0  0  0  0  0  0
    4.0747   -0.5541   -0.3070 C   0  0  0  0  0  0  0  0  0  0  0  0
    0.6812    1.1411    1.3947 H   0  0  0  0  0  0  0  0  0  0  0  0
    0.6136    1.6232   -0.2949 H   0  0  0  0  0  0  0  0  0  0  0  0
   -1.7748    1.4981    1.7122 H   0  0  0  0  0  0  0  0  0  0  0  0
   -2.9533    0.6992    0.6851 H   0  0  0  0  0  0  0  0  0  0  0  0
    1.5846   -1.0981    0.6820 H   0  0  0  0  0  0  0  0  0  0  0  0
    1.4493   -0.6175   -1.0037 H   0  0  0  0  0  0  0  0  0  0  0  0
    3.1628    0.7780    1.1076 H   0  0  0  0  0  0  0  0  0  0  0  0
    3.0165    1.2909   -0.5754 H   0  0  0  0  0  0  0  0  0  0  0  0
   -1.0090    2.8823   -0.2803 H   0  0  0  0  0  0  0  0  0  0  0  0
   -2.2584    2.0838   -1.2716 H   0  0  0  0  0  0  0  0  0  0  0  0
   -2.7010    3.0588    0.1034 H   0  0  0  0  0  0  0  0  0  0  0  0
   -2.0651   -2.7580    1.5711 H   0  0  0  0  0  0  0  0  0  0  0  0
   -2.3515   -1.5021   -2.2945 H   0  0  0  0  0  0  0  0  0  0  0  0
    3.9366   -0.9057   -1.3346 H   0  0  0  0  0  0  0  0  0  0  0  0
    4.0847   -1.4252    0.3560 H   0  0  0  0  0  0  0  0  0  0  0  0
    5.0531   -0.0676   -0.2433 H   0  0  0  0  0  0  0  0  0  0  0  0
  1 10  2  0  0  0  0
  2 11  2  0  0  0  0
  3 14  2  0  0  0  0
  4 10  1  0  0  0  0
  4 14  1  0  0  0  0
  4 27  1  0  0  0  0
  5 11  1  0  0  0  0
  5 14  1  0  0  0  0
  5 28  1  0  0  0  0
  6  7  1  0  0  0  0
  6  8  1  0  0  0  0
  6 10  1  0  0  0  0
  6 11  1  0  0  0  0
  7  9  1  0  0  0  0
  7 16  1  0  0  0  0
  7 17  1  0  0  0  0
  8 13  1  0  0  0  0
  8 18  1  0  0  0  0
  8 19  1  0  0  0  0
  9 12  1  0  0  0  0
  9 20  1  0  0  0  0
  9 21  1  0  0  0  0
 12 15  1  0  0  0  0
 12 22  1  0  0  0  0
 12 23  1  0  0  0  0
 13 24  1  0  0  0  0
 13 25  1  0  0  0  0
 13 26  1  0  0  0  0
 15 29  1  0  0  0  0
 15 30  1  0  0  0  0
 15 31  1  0  0  0  0
M  END
