DB01413
 OpenBabel07062211533D

 56 59  0  0  1  0  0  0  0  0999 V2000
    0.1783    0.7580   -1.2638 S   0  0  0  0  0  0  0  0  0  0  0  0
    4.7494   -3.6355    0.8005 S   0  0  0  0  0  0  0  0  0  0  0  0
    1.3992    0.8276    3.2232 O   0  0  0  0  0  0  0  0  0  0  0  0
   -1.0377   -1.6130    3.0239 O   0  0  0  0  0  0  0  0  0  0  0  0
   -2.3021    0.2269    3.5238 O   0  0  0  0  0  0  0  0  0  0  0  0
    4.3336    1.4020    2.0481 O   0  0  0  0  0  0  0  0  0  0  0  0
    5.5896    2.2792   -0.6546 O   0  0  0  0  0  0  0  0  0  0  0  0
   -4.4383   -0.0845   -0.0608 N   0  3  0  0  0  0  0  0  0  0  0  0
   -0.0601    0.8853    1.3746 N   0  0  0  0  0  0  0  0  0  0  0  0
    2.7928    1.1806    0.2912 N   0  0  0  0  0  0  0  0  0  0  0  0
    5.8127    0.8957   -0.6890 N   0  0  0  0  0  0  0  0  0  0  0  0
    6.0497   -1.8756   -0.5758 N   0  0  0  0  0  0  0  0  0  0  0  0
    6.7174   -4.1172   -0.9218 N   0  0  0  0  0  0  0  0  0  0  0  0
   -5.7503   -0.7859    0.3467 C   0  0  0  0  0  0  0  0  0  0  0  0
   -4.4804    0.0230   -1.5990 C   0  0  0  0  0  0  0  0  0  0  0  0
   -3.2352   -0.9047    0.3790 C   0  0  0  0  0  0  0  0  0  0  0  0
   -6.3041   -1.3458   -0.9486 C   0  0  0  0  0  0  0  0  0  0  0  0
   -5.9158   -0.2970   -1.9673 C   0  0  0  0  0  0  0  0  0  0  0  0
   -4.3600    1.2975    0.5697 C   0  0  0  0  0  0  0  0  0  0  0  0
   -1.9557   -0.1011    0.3731 C   0  0  0  0  0  0  0  0  0  0  0  0
    0.2680    1.7402    0.2505 C   0  0  1  0  0  0  0  0  0  0  0  0
    1.6644    1.8869    0.8961 C   0  0  1  0  0  0  0  0  0  0  0  0
   -1.1860    0.1321    1.4612 C   0  0  0  0  0  0  0  0  0  0  0  0
   -1.5897    0.3631   -1.0343 C   0  0  0  0  0  0  0  0  0  0  0  0
    1.0416    1.1389    2.1115 C   0  0  0  0  0  0  0  0  0  0  0  0
   -1.5459   -0.4816    2.8095 C   0  0  0  0  0  0  0  0  0  0  0  0
    4.0059    1.0167    0.9375 C   0  0  0  0  0  0  0  0  0  0  0  0
    5.0145    0.2586    0.1138 C   0  0  0  0  0  0  0  0  0  0  0  0
    5.1171   -1.2023    0.1890 C   0  0  0  0  0  0  0  0  0  0  0  0
    4.3214   -1.9865    0.9976 C   0  0  0  0  0  0  0  0  0  0  0  0
    5.9466   -3.1638   -0.3348 C   0  0  0  0  0  0  0  0  0  0  0  0
    6.4980    2.8945   -1.5549 C   0  0  0  0  0  0  0  0  0  0  0  0
   -6.4259   -0.0319    0.7657 H   0  0  0  0  0  0  0  0  0  0  0  0
   -5.5551   -1.5562    1.0984 H   0  0  0  0  0  0  0  0  0  0  0  0
   -3.8320   -0.7410   -2.0352 H   0  0  0  0  0  0  0  0  0  0  0  0
   -4.1922    1.0263   -1.9231 H   0  0  0  0  0  0  0  0  0  0  0  0
   -3.4623   -1.2657    1.3871 H   0  0  0  0  0  0  0  0  0  0  0  0
   -3.1628   -1.7911   -0.2627 H   0  0  0  0  0  0  0  0  0  0  0  0
   -5.8292   -2.3056   -1.1843 H   0  0  0  0  0  0  0  0  0  0  0  0
   -7.3853   -1.5031   -0.9009 H   0  0  0  0  0  0  0  0  0  0  0  0
   -6.5460    0.5939   -1.8604 H   0  0  0  0  0  0  0  0  0  0  0  0
   -6.0085   -0.6573   -2.9958 H   0  0  0  0  0  0  0  0  0  0  0  0
   -4.3021    1.1796    1.6558 H   0  0  0  0  0  0  0  0  0  0  0  0
   -3.5158    1.8704    0.1853 H   0  0  0  0  0  0  0  0  0  0  0  0
   -5.2782    1.8357    0.3106 H   0  0  0  0  0  0  0  0  0  0  0  0
   -0.3150    2.6687    0.2364 H   0  0  0  0  0  0  0  0  0  0  0  0
    1.9240    2.9274    1.1244 H   0  0  0  0  0  0  0  0  0  0  0  0
   -2.1383    1.2580   -1.3273 H   0  0  0  0  0  0  0  0  0  0  0  0
   -1.7730   -0.4350   -1.7576 H   0  0  0  0  0  0  0  0  0  0  0  0
    2.6987    0.7912   -0.6439 H   0  0  0  0  0  0  0  0  0  0  0  0
    3.5323   -1.6938    1.6760 H   0  0  0  0  0  0  0  0  0  0  0  0
    7.5301    2.6940   -1.2508 H   0  0  0  0  0  0  0  0  0  0  0  0
    6.3280    2.5328   -2.5737 H   0  0  0  0  0  0  0  0  0  0  0  0
    6.3293    3.9743   -1.5333 H   0  0  0  0  0  0  0  0  0  0  0  0
    6.6045   -5.1026   -0.7076 H   0  0  0  0  0  0  0  0  0  0  0  0
    7.4358   -3.8816   -1.5986 H   0  0  0  0  0  0  0  0  0  0  0  0
  1 21  1  0  0  0  0
  1 24  1  0  0  0  0
  2 30  1  0  0  0  0
  2 31  1  0  0  0  0
  3 25  2  0  0  0  0
  4 26  2  0  0  0  0
  5 26  1  0  0  0  0
  6 27  2  0  0  0  0
  7 11  1  0  0  0  0
  7 32  1  0  0  0  0
  8 14  1  0  0  0  0
  8 15  1  0  0  0  0
  8 16  1  0  0  0  0
  8 19  1  0  0  0  0
  9 21  1  0  0  0  0
  9 23  1  0  0  0  0
  9 25  1  0  0  0  0
 10 22  1  0  0  0  0
 10 27  1  0  0  0  0
 10 50  1  0  0  0  0
 11 28  2  0  0  0  0
 12 29  1  0  0  0  0
 12 31  2  0  0  0  0
 13 31  1  0  0  0  0
 13 55  1  0  0  0  0
 13 56  1  0  0  0  0
 14 17  1  0  0  0  0
 14 33  1  0  0  0  0
 14 34  1  0  0  0  0
 15 18  1  0  0  0  0
 15 35  1  0  0  0  0
 15 36  1  0  0  0  0
 16 20  1  0  0  0  0
 16 37  1  0  0  0  0
 16 38  1  0  0  0  0
 17 18  1  0  0  0  0
 17 39  1  0  0  0  0
 17 40  1  0  0  0  0
 18 41  1  0  0  0  0
 18 42  1  0  0  0  0
 19 43  1  0  0  0  0
 19 44  1  0  0  0  0
 19 45  1  0  0  0  0
 20 23  2  0  0  0  0
 20 24  1  0  0  0  0
 21 22  1  1  0  0  0
 21 46  1  0  0  0  0
 22 25  1  0  0  0  0
 22 47  1  1  0  0  0
 23 26  1  0  0  0  0
 24 48  1  0  0  0  0
 24 49  1  0  0  0  0
 27 28  1  0  0  0  0
 28 29  1  0  0  0  0
 29 30  2  0  0  0  0
 30 51  1  0  0  0  0
 32 52  1  0  0  0  0
 32 53  1  0  0  0  0
 32 54  1  0  0  0  0
M  CHG  1   8   1
M  END
