DB01019
 OpenBabel07062211533D

 28 27  0  0  1  0  0  0  0  0999 V2000
   -1.3263    0.4267   -0.0991 O   0  0  0  0  0  0  0  0  0  0  0  0
   -2.9150    0.1892    1.5500 O   0  0  0  0  0  0  0  0  0  0  0  0
    1.5145    0.1642   -0.0159 N   0  3  0  0  0  0  0  0  0  0  0  0
   -3.2649    1.5637   -0.2598 N   0  0  0  0  0  0  0  0  0  0  0  0
    0.6008   -0.9441   -0.5188 C   0  0  0  0  0  0  0  0  0  0  0  0
   -0.7722   -0.8647    0.1406 C   0  0  2  0  0  0  0  0  0  0  0  0
    1.6443    0.0671    1.4974 C   0  0  0  0  0  0  0  0  0  0  0  0
    2.8886    0.0172   -0.6535 C   0  0  0  0  0  0  0  0  0  0  0  0
    0.9244    1.5166   -0.3886 C   0  0  0  0  0  0  0  0  0  0  0  0
   -1.7502   -1.9340   -0.3281 C   0  0  0  0  0  0  0  0  0  0  0  0
   -2.5322    0.6796    0.4930 C   0  0  0  0  0  0  0  0  0  0  0  0
    0.5237   -0.8259   -1.6066 H   0  0  0  0  0  0  0  0  0  0  0  0
    1.0863   -1.9031   -0.3026 H   0  0  0  0  0  0  0  0  0  0  0  0
   -0.6632   -1.0098    1.2214 H   0  0  0  0  0  0  0  0  0  0  0  0
    1.9192   -0.9586    1.7607 H   0  0  0  0  0  0  0  0  0  0  0  0
    2.4347    0.7566    1.8118 H   0  0  0  0  0  0  0  0  0  0  0  0
    0.7109    0.3652    1.9809 H   0  0  0  0  0  0  0  0  0  0  0  0
    2.7758    0.1046   -1.7383 H   0  0  0  0  0  0  0  0  0  0  0  0
    3.5411    0.8082   -0.2715 H   0  0  0  0  0  0  0  0  0  0  0  0
    3.2895   -0.9652   -0.3871 H   0  0  0  0  0  0  0  0  0  0  0  0
    0.4796    1.4683   -1.3870 H   0  0  0  0  0  0  0  0  0  0  0  0
    0.2444    1.8764    0.3871 H   0  0  0  0  0  0  0  0  0  0  0  0
    1.7509    2.2365   -0.4197 H   0  0  0  0  0  0  0  0  0  0  0  0
   -2.0321   -1.7682   -1.3739 H   0  0  0  0  0  0  0  0  0  0  0  0
   -2.6768   -1.9441    0.2530 H   0  0  0  0  0  0  0  0  0  0  0  0
   -1.3025   -2.9298   -0.2460 H   0  0  0  0  0  0  0  0  0  0  0  0
   -2.9040    1.9423   -1.1290 H   0  0  0  0  0  0  0  0  0  0  0  0
   -4.1893    1.8651    0.0297 H   0  0  0  0  0  0  0  0  0  0  0  0
  1  6  1  0  0  0  0
  1 11  1  0  0  0  0
  2 11  2  0  0  0  0
  3  5  1  0  0  0  0
  3  7  1  0  0  0  0
  3  8  1  0  0  0  0
  3  9  1  0  0  0  0
  4 11  1  0  0  0  0
  4 27  1  0  0  0  0
  4 28  1  0  0  0  0
  5  6  1  0  0  0  0
  5 12  1  0  0  0  0
  5 13  1  0  0  0  0
  6 10  1  0  0  0  0
  6 14  1  1  0  0  0
  7 15  1  0  0  0  0
  7 16  1  0  0  0  0
  7 17  1  0  0  0  0
  8 18  1  0  0  0  0
  8 19  1  0  0  0  0
  8 20  1  0  0  0  0
  9 21  1  0  0  0  0
  9 22  1  0  0  0  0
  9 23  1  0  0  0  0
 10 24  1  0  0  0  0
 10 25  1  0  0  0  0
 10 26  1  0  0  0  0
M  CHG  1   3   1
M  END
