DB01598
 OpenBabel07062211533D

 37 38  0  0  1  0  0  0  0  0999 V2000
   -1.9303    0.3299    1.2176 S   0  0  0  0  0  0  0  0  0  0  0  0
    4.8789    1.7686    0.3473 O   0  0  0  0  0  0  0  0  0  0  0  0
    2.5169   -1.8039   -1.4212 O   0  0  0  0  0  0  0  0  0  0  0  0
    0.4882   -3.4266    0.6892 O   0  0  0  0  0  0  0  0  0  0  0  0
   -1.4064   -2.4885   -0.1832 O   0  0  0  0  0  0  0  0  0  0  0  0
    1.6931   -1.0129    0.6441 N   0  0  0  0  0  0  0  0  0  0  0  0
   -4.6132    0.0765   -0.2452 N   0  0  0  0  0  0  0  0  0  0  0  0
   -6.9481   -0.5568   -0.0294 N   0  0  0  0  0  0  0  0  0  0  0  0
    2.1010    0.3391    1.0853 C   0  0  1  0  0  0  0  0  0  0  0  0
    2.9961    0.3805   -0.1828 C   0  0  2  0  0  0  0  0  0  0  0  0
    0.7815    1.1052    1.2314 C   0  0  0  0  0  0  0  0  0  0  0  0
    2.4400   -1.0263   -0.4967 C   0  0  0  0  0  0  0  0  0  0  0  0
    4.4919    0.4348    0.0162 C   0  0  1  0  0  0  0  0  0  0  0  0
    0.3333   -1.1311    0.7008 C   0  0  0  0  0  0  0  0  0  0  0  0
   -0.2513    0.0216    1.0498 C   0  0  0  0  0  0  0  0  0  0  0  0
    5.2325    0.0007   -1.2436 C   0  0  0  0  0  0  0  0  0  0  0  0
   -0.3102   -2.3918    0.3454 C   0  0  0  0  0  0  0  0  0  0  0  0
   -2.3279    0.8635   -0.4634 C   0  0  0  0  0  0  0  0  0  0  0  0
   -3.7951    1.2476   -0.5728 C   0  0  0  0  0  0  0  0  0  0  0  0
   -5.8828    0.2667   -0.2697 C   0  0  0  0  0  0  0  0  0  0  0  0
    2.6580    0.2869    2.0304 H   0  0  0  0  0  0  0  0  0  0  0  0
    2.6545    1.1156   -0.9251 H   0  0  0  0  0  0  0  0  0  0  0  0
    0.6836    1.8856    0.4698 H   0  0  0  0  0  0  0  0  0  0  0  0
    0.7065    1.5592    2.2253 H   0  0  0  0  0  0  0  0  0  0  0  0
    4.8076   -0.2126    0.8428 H   0  0  0  0  0  0  0  0  0  0  0  0
    6.3108    0.1509   -1.1213 H   0  0  0  0  0  0  0  0  0  0  0  0
    5.0582   -1.0521   -1.4808 H   0  0  0  0  0  0  0  0  0  0  0  0
    4.9252    0.6045   -2.1049 H   0  0  0  0  0  0  0  0  0  0  0  0
    4.4313    2.0045    1.1778 H   0  0  0  0  0  0  0  0  0  0  0  0
   -2.0994    0.0530   -1.1641 H   0  0  0  0  0  0  0  0  0  0  0  0
   -1.7059    1.7249   -0.7290 H   0  0  0  0  0  0  0  0  0  0  0  0
    0.0858   -4.2925    0.4638 H   0  0  0  0  0  0  0  0  0  0  0  0
   -4.0015    1.5721   -1.6000 H   0  0  0  0  0  0  0  0  0  0  0  0
   -4.0241    2.0844    0.0993 H   0  0  0  0  0  0  0  0  0  0  0  0
   -6.2623    1.2717   -0.5300 H   0  0  0  0  0  0  0  0  0  0  0  0
   -7.9041   -0.2244   -0.0991 H   0  0  0  0  0  0  0  0  0  0  0  0
   -6.8122   -1.5288    0.2262 H   0  0  0  0  0  0  0  0  0  0  0  0
  1 15  1  0  0  0  0
  1 18  1  0  0  0  0
  2 13  1  0  0  0  0
  2 29  1  0  0  0  0
  3 12  2  0  0  0  0
  4 17  1  0  0  0  0
  4 32  1  0  0  0  0
  5 17  2  0  0  0  0
  6  9  1  0  0  0  0
  6 12  1  0  0  0  0
  6 14  1  0  0  0  0
  7 19  1  0  0  0  0
  7 20  2  0  0  0  0
  8 20  1  0  0  0  0
  8 36  1  0  0  0  0
  8 37  1  0  0  0  0
  9 10  1  6  0  0  0
  9 11  1  0  0  0  0
  9 21  1  0  0  0  0
 10 12  1  0  0  0  0
 10 13  1  0  0  0  0
 10 22  1  6  0  0  0
 11 15  1  0  0  0  0
 11 23  1  0  0  0  0
 11 24  1  0  0  0  0
 13 16  1  0  0  0  0
 13 25  1  1  0  0  0
 14 15  2  0  0  0  0
 14 17  1  0  0  0  0
 16 26  1  0  0  0  0
 16 27  1  0  0  0  0
 16 28  1  0  0  0  0
 18 19  1  0  0  0  0
 18 30  1  0  0  0  0
 18 31  1  0  0  0  0
 19 33  1  0  0  0  0
 19 34  1  0  0  0  0
 20 35  1  0  0  0  0
M  END
