DB01407
 OpenBabel07062211533D

 35 35  0  0  1  0  0  0  0  0999 V2000
    3.8800   -2.8775   -0.5106 Cl  0  0  0  0  0  0  0  0  0  0  0  0
    5.0847    2.2233    1.0167 Cl  0  0  0  0  0  0  0  0  0  0  0  0
    0.2884    0.7842   -2.3015 O   0  0  0  0  0  0  0  0  0  0  0  0
   -1.9727    0.6270   -0.5276 N   0  0  0  0  0  0  0  0  0  0  0  0
    5.6718   -0.7089    0.5899 N   0  0  0  0  0  0  0  0  0  0  0  0
   -2.9992   -0.1250    0.2016 C   0  0  0  0  0  0  0  0  0  0  0  0
   -0.6438    0.1869   -0.1382 C   0  0  0  0  0  0  0  0  0  0  0  0
    0.4345    0.9726   -0.8946 C   0  0  1  0  0  0  0  0  0  0  0  0
   -4.3785    0.3665   -0.2504 C   0  0  0  0  0  0  0  0  0  0  0  0
   -2.8382   -1.6134   -0.1253 C   0  0  0  0  0  0  0  0  0  0  0  0
   -2.8251    0.1056    1.7073 C   0  0  0  0  0  0  0  0  0  0  0  0
    1.8250    0.5260   -0.4997 C   0  0  0  0  0  0  0  0  0  0  0  0
    2.7129    1.4551    0.0143 C   0  0  0  0  0  0  0  0  0  0  0  0
    2.1798   -0.8022   -0.6616 C   0  0  0  0  0  0  0  0  0  0  0  0
    3.4621   -1.2139   -0.2984 C   0  0  0  0  0  0  0  0  0  0  0  0
    3.9953    1.0435    0.3775 C   0  0  0  0  0  0  0  0  0  0  0  0
    4.3699   -0.2909    0.2211 C   0  0  0  0  0  0  0  0  0  0  0  0
   -2.0731    1.6245   -0.3408 H   0  0  0  0  0  0  0  0  0  0  0  0
   -0.4489    0.3257    0.9298 H   0  0  0  0  0  0  0  0  0  0  0  0
   -0.5120   -0.8691   -0.3829 H   0  0  0  0  0  0  0  0  0  0  0  0
    0.3149    2.0458   -0.6990 H   0  0  0  0  0  0  0  0  0  0  0  0
   -5.1804   -0.1771    0.2621 H   0  0  0  0  0  0  0  0  0  0  0  0
   -4.5134    1.4330   -0.0351 H   0  0  0  0  0  0  0  0  0  0  0  0
   -4.5191    0.2231   -1.3283 H   0  0  0  0  0  0  0  0  0  0  0  0
   -1.9889   -2.0859    0.3794 H   0  0  0  0  0  0  0  0  0  0  0  0
   -2.7453   -1.7859   -1.2043 H   0  0  0  0  0  0  0  0  0  0  0  0
   -3.7245   -2.1692    0.2066 H   0  0  0  0  0  0  0  0  0  0  0  0
   -3.7021   -0.2696    2.2497 H   0  0  0  0  0  0  0  0  0  0  0  0
   -1.9644   -0.4189    2.1351 H   0  0  0  0  0  0  0  0  0  0  0  0
   -2.7374    1.1719    1.9478 H   0  0  0  0  0  0  0  0  0  0  0  0
    2.4171    2.4942    0.1344 H   0  0  0  0  0  0  0  0  0  0  0  0
    1.4830   -1.5215   -1.0832 H   0  0  0  0  0  0  0  0  0  0  0  0
   -0.6216    1.0356   -2.5350 H   0  0  0  0  0  0  0  0  0  0  0  0
    6.3281   -0.0382    0.9669 H   0  0  0  0  0  0  0  0  0  0  0  0
    5.9410   -1.6771    0.4763 H   0  0  0  0  0  0  0  0  0  0  0  0
  1 15  1  0  0  0  0
  2 16  1  0  0  0  0
  3  8  1  0  0  0  0
  3 33  1  0  0  0  0
  4  6  1  0  0  0  0
  4  7  1  0  0  0  0
  4 18  1  0  0  0  0
  5 17  1  0  0  0  0
  5 34  1  0  0  0  0
  5 35  1  0  0  0  0
  6  9  1  0  0  0  0
  6 10  1  0  0  0  0
  6 11  1  0  0  0  0
  7  8  1  0  0  0  0
  7 19  1  0  0  0  0
  7 20  1  0  0  0  0
  8 12  1  0  0  0  0
  8 21  1  1  0  0  0
  9 22  1  0  0  0  0
  9 23  1  0  0  0  0
  9 24  1  0  0  0  0
 10 25  1  0  0  0  0
 10 26  1  0  0  0  0
 10 27  1  0  0  0  0
 11 28  1  0  0  0  0
 11 29  1  0  0  0  0
 11 30  1  0  0  0  0
 12 13  2  0  0  0  0
 12 14  1  0  0  0  0
 13 16  1  0  0  0  0
 13 31  1  0  0  0  0
 14 15  2  0  0  0  0
 14 32  1  0  0  0  0
 15 17  1  0  0  0  0
 16 17  2  0  0  0  0
M  END
