DB01205
 OpenBabel07062211533D

 36 38  0  0  1  0  0  0  0  0999 V2000
   -6.3622   -1.0362    0.2843 F   0  0  0  0  0  0  0  0  0  0  0  0
   -3.0858    2.2619   -1.2855 O   0  0  0  0  0  0  0  0  0  0  0  0
    3.6415   -0.6131   -0.0348 O   0  0  0  0  0  0  0  0  0  0  0  0
    2.6665    1.2741    0.8520 O   0  0  0  0  0  0  0  0  0  0  0  0
   -0.8178   -1.0095   -0.1418 N   0  0  0  0  0  0  0  0  0  0  0  0
   -1.1681    1.9792   -0.0190 N   0  0  0  0  0  0  0  0  0  0  0  0
    1.2601   -1.7715   -0.4853 N   0  0  0  0  0  0  0  0  0  0  0  0
    0.0463   -0.0298    0.2988 C   0  0  1  0  0  0  0  0  0  0  0  0
   -0.4180    1.2078    0.9562 C   0  0  0  0  0  0  0  0  0  0  0  0
   -2.2331   -0.9680   -0.0867 C   0  0  0  0  0  0  0  0  0  0  0  0
   -2.9599    0.2396   -0.1400 C   0  0  0  0  0  0  0  0  0  0  0  0
    1.3104   -0.5162    0.0513 C   0  0  0  0  0  0  0  0  0  0  0  0
   -2.4063    1.5753   -0.5195 C   0  0  0  0  0  0  0  0  0  0  0  0
   -0.0218   -2.0515   -0.5659 C   0  0  0  0  0  0  0  0  0  0  0  0
   -2.9225   -2.1861    0.0510 C   0  0  0  0  0  0  0  0  0  0  0  0
   -0.5826    3.2452   -0.4423 C   0  0  0  0  0  0  0  0  0  0  0  0
   -4.3605    0.1944   -0.0083 C   0  0  0  0  0  0  0  0  0  0  0  0
   -4.3115   -2.2069    0.1787 C   0  0  0  0  0  0  0  0  0  0  0  0
    2.5509    0.1424    0.3323 C   0  0  0  0  0  0  0  0  0  0  0  0
   -5.0288   -1.0178    0.1600 C   0  0  0  0  0  0  0  0  0  0  0  0
    4.9422   -0.0617    0.1970 C   0  0  0  0  0  0  0  0  0  0  0  0
    5.9878   -1.0489   -0.2761 C   0  0  0  0  0  0  0  0  0  0  0  0
   -1.0828    0.9656    1.7944 H   0  0  0  0  0  0  0  0  0  0  0  0
    0.3912    1.8170    1.3644 H   0  0  0  0  0  0  0  0  0  0  0  0
   -0.4209   -2.9786   -0.9549 H   0  0  0  0  0  0  0  0  0  0  0  0
   -2.4006   -3.1380    0.1045 H   0  0  0  0  0  0  0  0  0  0  0  0
    0.4142    3.0538   -0.8507 H   0  0  0  0  0  0  0  0  0  0  0  0
   -0.5040    3.9032    0.4279 H   0  0  0  0  0  0  0  0  0  0  0  0
   -1.1903    3.7368   -1.2060 H   0  0  0  0  0  0  0  0  0  0  0  0
   -4.9554    1.1045   -0.0507 H   0  0  0  0  0  0  0  0  0  0  0  0
   -4.8307   -3.1527    0.3024 H   0  0  0  0  0  0  0  0  0  0  0  0
    5.0409    0.8791   -0.3554 H   0  0  0  0  0  0  0  0  0  0  0  0
    5.0687    0.1307    1.2680 H   0  0  0  0  0  0  0  0  0  0  0  0
    6.9963   -0.6585   -0.1135 H   0  0  0  0  0  0  0  0  0  0  0  0
    5.8870   -2.0010    0.2552 H   0  0  0  0  0  0  0  0  0  0  0  0
    5.8595   -1.2646   -1.3419 H   0  0  0  0  0  0  0  0  0  0  0  0
  1 20  1  0  0  0  0
  2 13  2  0  0  0  0
  3 19  1  0  0  0  0
  3 21  1  0  0  0  0
  4 19  2  0  0  0  0
  5  8  1  0  0  0  0
  5 10  1  0  0  0  0
  5 14  2  0  0  0  0
  6  9  1  0  0  0  0
  6 13  1  0  0  0  0
  6 16  1  0  0  0  0
  7 12  2  0  0  0  0
  7 14  1  0  0  0  0
  8  9  1  0  0  0  0
  8 12  1  1  0  0  0
  9 23  1  0  0  0  0
  9 24  1  0  0  0  0
 10 11  2  0  0  0  0
 10 15  1  0  0  0  0
 11 13  1  0  0  0  0
 11 17  1  0  0  0  0
 12 19  1  0  0  0  0
 14 25  1  0  0  0  0
 15 18  2  0  0  0  0
 15 26  1  0  0  0  0
 16 27  1  0  0  0  0
 16 28  1  0  0  0  0
 16 29  1  0  0  0  0
 17 20  2  0  0  0  0
 17 30  1  0  0  0  0
 18 20  1  0  0  0  0
 18 31  1  0  0  0  0
 21 22  1  0  0  0  0
 21 32  1  0  0  0  0
 21 33  1  0  0  0  0
 22 34  1  0  0  0  0
 22 35  1  0  0  0  0
 22 36  1  0  0  0  0
M  END
