DB01140
 OpenBabel07062211533D

 42 44  0  0  1  0  0  0  0  0999 V2000
   -0.8291   -0.9393   -0.9027 S   0  0  0  0  0  0  0  0  0  0  0  0
   -2.4452    3.1644    0.5674 O   0  0  0  0  0  0  0  0  0  0  0  0
    1.9092    2.1804   -1.8836 O   0  0  0  0  0  0  0  0  0  0  0  0
   -4.2805    0.7618    2.1330 O   0  0  0  0  0  0  0  0  0  0  0  0
   -5.6583    1.2765    0.3816 O   0  0  0  0  0  0  0  0  0  0  0  0
    4.3520   -3.7199    0.4840 O   0  0  0  0  0  0  0  0  0  0  0  0
   -2.5568    1.0077   -0.3796 N   0  0  0  0  0  0  0  0  0  0  0  0
    0.4087    1.7692   -0.1646 N   0  0  0  0  0  0  0  0  0  0  0  0
    3.9056    2.5909   -0.0189 N   0  0  0  0  0  0  0  0  0  0  0  0
   -1.5734    0.6368   -1.3807 C   0  0  1  0  0  0  0  0  0  0  0  0
   -0.8086    1.9119   -0.9629 C   0  0  1  0  0  0  0  0  0  0  0  0
   -2.0717    2.2407   -0.1169 C   0  0  0  0  0  0  0  0  0  0  0  0
   -3.5715    0.1977    0.0180 C   0  0  0  0  0  0  0  0  0  0  0  0
   -2.4171   -1.8361   -0.9682 C   0  0  0  0  0  0  0  0  0  0  0  0
   -3.5755   -1.1252   -0.2720 C   0  0  0  0  0  0  0  0  0  0  0  0
    1.6883    1.9182   -0.7024 C   0  0  0  0  0  0  0  0  0  0  0  0
   -4.7024   -2.0726    0.0629 C   0  0  0  0  0  0  0  0  0  0  0  0
   -4.6323    0.8085    0.8328 C   0  0  0  0  0  0  0  0  0  0  0  0
    2.7937    1.7001    0.3250 C   0  0  1  0  0  0  0  0  0  0  0  0
    3.2119    0.2450    0.3675 C   0  0  0  0  0  0  0  0  0  0  0  0
    3.0932   -0.4559    1.5541 C   0  0  0  0  0  0  0  0  0  0  0  0
    3.7027   -0.3490   -0.7814 C   0  0  0  0  0  0  0  0  0  0  0  0
    3.4787   -1.7958    1.5933 C   0  0  0  0  0  0  0  0  0  0  0  0
    4.0880   -1.6891   -0.7422 C   0  0  0  0  0  0  0  0  0  0  0  0
    3.9759   -2.4125    0.4452 C   0  0  0  0  0  0  0  0  0  0  0  0
   -1.9694    0.6717   -2.4026 H   0  0  0  0  0  0  0  0  0  0  0  0
   -0.6784    2.6270   -1.7846 H   0  0  0  0  0  0  0  0  0  0  0  0
    0.3341    1.5322    0.8219 H   0  0  0  0  0  0  0  0  0  0  0  0
   -2.2396   -2.8067   -0.4929 H   0  0  0  0  0  0  0  0  0  0  0  0
   -2.6798   -2.0199   -2.0158 H   0  0  0  0  0  0  0  0  0  0  0  0
   -5.5652   -1.5724    0.5111 H   0  0  0  0  0  0  0  0  0  0  0  0
   -4.3582   -2.8348    0.7698 H   0  0  0  0  0  0  0  0  0  0  0  0
   -5.0537   -2.5738   -0.8453 H   0  0  0  0  0  0  0  0  0  0  0  0
    2.4207    2.0131    1.3085 H   0  0  0  0  0  0  0  0  0  0  0  0
    4.6349    2.5119    0.6896 H   0  0  0  0  0  0  0  0  0  0  0  0
    3.5886    3.5595    0.0145 H   0  0  0  0  0  0  0  0  0  0  0  0
   -4.9628    1.1599    2.7146 H   0  0  0  0  0  0  0  0  0  0  0  0
    2.7068    0.0131    2.4541 H   0  0  0  0  0  0  0  0  0  0  0  0
    3.8021    0.1990   -1.7134 H   0  0  0  0  0  0  0  0  0  0  0  0
    3.3888   -2.3543    2.5211 H   0  0  0  0  0  0  0  0  0  0  0  0
    4.4750   -2.1575   -1.6432 H   0  0  0  0  0  0  0  0  0  0  0  0
    4.6710   -3.9823   -0.3965 H   0  0  0  0  0  0  0  0  0  0  0  0
  1 10  1  0  0  0  0
  1 14  1  0  0  0  0
  2 12  2  0  0  0  0
  3 16  2  0  0  0  0
  4 18  1  0  0  0  0
  4 37  1  0  0  0  0
  5 18  2  0  0  0  0
  6 25  1  0  0  0  0
  6 42  1  0  0  0  0
  7 10  1  0  0  0  0
  7 12  1  0  0  0  0
  7 13  1  0  0  0  0
  8 11  1  0  0  0  0
  8 16  1  0  0  0  0
  8 28  1  0  0  0  0
  9 19  1  0  0  0  0
  9 35  1  0  0  0  0
  9 36  1  0  0  0  0
 10 11  1  1  0  0  0
 10 26  1  0  0  0  0
 11 12  1  0  0  0  0
 11 27  1  6  0  0  0
 13 15  2  0  0  0  0
 13 18  1  0  0  0  0
 14 15  1  0  0  0  0
 14 29  1  0  0  0  0
 14 30  1  0  0  0  0
 15 17  1  0  0  0  0
 16 19  1  0  0  0  0
 17 31  1  0  0  0  0
 17 32  1  0  0  0  0
 17 33  1  0  0  0  0
 19 20  1  0  0  0  0
 19 34  1  1  0  0  0
 20 21  2  0  0  0  0
 20 22  1  0  0  0  0
 21 23  1  0  0  0  0
 21 38  1  0  0  0  0
 22 24  2  0  0  0  0
 22 39  1  0  0  0  0
 23 25  2  0  0  0  0
 23 40  1  0  0  0  0
 24 25  1  0  0  0  0
 24 41  1  0  0  0  0
M  END
