DB01127
 OpenBabel07062211533D

 39 41  0  0  1  0  0  0  0  0999 V2000
   -2.5730    0.3848   -2.8038 Cl  0  0  0  0  0  0  0  0  0  0  0  0
   -4.6887    4.1174    0.4461 Cl  0  0  0  0  0  0  0  0  0  0  0  0
    6.2681    2.2090    0.5978 Cl  0  0  0  0  0  0  0  0  0  0  0  0
    0.1764   -0.2985    0.0213 O   0  0  0  0  0  0  0  0  0  0  0  0
   -0.7404   -3.0472    0.4372 N   0  0  0  0  0  0  0  0  0  0  0  0
   -0.0784   -4.9899   -0.3724 N   0  0  0  0  0  0  0  0  0  0  0  0
   -1.1567   -0.6838   -0.2834 C   0  0  1  0  0  0  0  0  0  0  0  0
   -1.5562   -1.8538    0.6269 C   0  0  0  0  0  0  0  0  0  0  0  0
   -2.0531    0.5243   -0.1322 C   0  0  0  0  0  0  0  0  0  0  0  0
    0.6345    0.7279   -0.8501 C   0  0  0  0  0  0  0  0  0  0  0  0
   -2.7215    1.0593   -1.2220 C   0  0  0  0  0  0  0  0  0  0  0  0
   -2.1825    1.0768    1.1331 C   0  0  0  0  0  0  0  0  0  0  0  0
    2.0345    1.0954   -0.4896 C   0  0  0  0  0  0  0  0  0  0  0  0
    0.4062   -3.3385    1.1025 C   0  0  0  0  0  0  0  0  0  0  0  0
   -1.0002   -4.0548   -0.4355 C   0  0  0  0  0  0  0  0  0  0  0  0
   -3.5398    2.1748   -1.0430 C   0  0  0  0  0  0  0  0  0  0  0  0
   -3.0007    2.1921    1.3121 C   0  0  0  0  0  0  0  0  0  0  0  0
   -3.6793    2.7411    0.2241 C   0  0  0  0  0  0  0  0  0  0  0  0
    0.8010   -4.5498    0.5849 C   0  0  0  0  0  0  0  0  0  0  0  0
    2.2724    2.1039    0.4440 C   0  0  0  0  0  0  0  0  0  0  0  0
    3.1057    0.4311   -1.0869 C   0  0  0  0  0  0  0  0  0  0  0  0
    3.5815    2.4483    0.7803 C   0  0  0  0  0  0  0  0  0  0  0  0
    4.4150    0.7753   -0.7505 C   0  0  0  0  0  0  0  0  0  0  0  0
    4.6529    1.7839    0.1832 C   0  0  0  0  0  0  0  0  0  0  0  0
   -1.1470   -1.0800   -1.3030 H   0  0  0  0  0  0  0  0  0  0  0  0
   -1.4570   -1.5953    1.6881 H   0  0  0  0  0  0  0  0  0  0  0  0
   -2.5994   -2.1460    0.4548 H   0  0  0  0  0  0  0  0  0  0  0  0
    0.5984    0.3787   -1.8901 H   0  0  0  0  0  0  0  0  0  0  0  0
    0.0281    1.6378   -0.7888 H   0  0  0  0  0  0  0  0  0  0  0  0
   -1.6523    0.6748    1.9912 H   0  0  0  0  0  0  0  0  0  0  0  0
    0.8347   -2.6929    1.8566 H   0  0  0  0  0  0  0  0  0  0  0  0
   -1.8615   -4.0622   -1.0896 H   0  0  0  0  0  0  0  0  0  0  0  0
   -4.0698    2.6043   -1.8905 H   0  0  0  0  0  0  0  0  0  0  0  0
   -3.0975    2.6250    2.3045 H   0  0  0  0  0  0  0  0  0  0  0  0
    1.6744   -5.1266    0.8521 H   0  0  0  0  0  0  0  0  0  0  0  0
    1.4462    2.6272    0.9182 H   0  0  0  0  0  0  0  0  0  0  0  0
    2.9332   -0.3583   -1.8139 H   0  0  0  0  0  0  0  0  0  0  0  0
    3.7518    3.2359    1.5099 H   0  0  0  0  0  0  0  0  0  0  0  0
    5.2399    0.2486   -1.2235 H   0  0  0  0  0  0  0  0  0  0  0  0
  1 11  1  0  0  0  0
  2 18  1  0  0  0  0
  3 24  1  0  0  0  0
  4  7  1  0  0  0  0
  4 10  1  0  0  0  0
  5  8  1  0  0  0  0
  5 14  1  0  0  0  0
  5 15  2  0  0  0  0
  6 15  1  0  0  0  0
  6 19  2  0  0  0  0
  7  8  1  0  0  0  0
  7  9  1  0  0  0  0
  7 25  1  6  0  0  0
  8 26  1  0  0  0  0
  8 27  1  0  0  0  0
  9 11  2  0  0  0  0
  9 12  1  0  0  0  0
 10 13  1  0  0  0  0
 10 28  1  0  0  0  0
 10 29  1  0  0  0  0
 11 16  1  0  0  0  0
 12 17  2  0  0  0  0
 12 30  1  0  0  0  0
 13 20  2  0  0  0  0
 13 21  1  0  0  0  0
 14 19  1  0  0  0  0
 14 31  1  0  0  0  0
 15 32  1  0  0  0  0
 16 18  2  0  0  0  0
 16 33  1  0  0  0  0
 17 18  1  0  0  0  0
 17 34  1  0  0  0  0
 19 35  1  0  0  0  0
 20 22  1  0  0  0  0
 20 36  1  0  0  0  0
 21 23  2  0  0  0  0
 21 37  1  0  0  0  0
 22 24  2  0  0  0  0
 22 38  1  0  0  0  0
 23 24  1  0  0  0  0
 23 39  1  0  0  0  0
M  END
