DB01065
 OpenBabel07062211533D

 33 34  0  0  0  0  0  0  0  0999 V2000
   -0.0465    3.3484    0.3472 O   0  0  0  0  0  0  0  0  0  0  0  0
    3.3176   -1.1320    0.7275 O   0  0  0  0  0  0  0  0  0  0  0  0
   -3.2104   -1.0701   -0.3785 N   0  0  0  0  0  0  0  0  0  0  0  0
    1.5185   -1.6093   -0.6720 N   0  0  0  0  0  0  0  0  0  0  0  0
   -1.2275   -1.4897    0.5264 C   0  0  0  0  0  0  0  0  0  0  0  0
   -1.3207   -0.0898    0.2887 C   0  0  0  0  0  0  0  0  0  0  0  0
   -0.0796   -2.2068    1.1166 C   0  0  0  0  0  0  0  0  0  0  0  0
   -2.5744    0.1470   -0.2793 C   0  0  0  0  0  0  0  0  0  0  0  0
   -2.4044   -2.0650    0.1059 C   0  0  0  0  0  0  0  0  0  0  0  0
    0.9548   -2.6927    0.0879 C   0  0  0  0  0  0  0  0  0  0  0  0
   -0.4562    1.0022    0.5029 C   0  0  0  0  0  0  0  0  0  0  0  0
   -3.0085    1.4259   -0.6453 C   0  0  0  0  0  0  0  0  0  0  0  0
   -0.8771    2.2872    0.1418 C   0  0  0  0  0  0  0  0  0  0  0  0
   -2.1340    2.4935   -0.4234 C   0  0  0  0  0  0  0  0  0  0  0  0
    2.6580   -0.9172   -0.2861 C   0  0  0  0  0  0  0  0  0  0  0  0
    3.0451    0.1505   -1.2740 C   0  0  0  0  0  0  0  0  0  0  0  0
    1.2256    3.0716    0.9287 C   0  0  0  0  0  0  0  0  0  0  0  0
   -0.4423   -3.0774    1.6780 H   0  0  0  0  0  0  0  0  0  0  0  0
    0.4186   -1.5628    1.8526 H   0  0  0  0  0  0  0  0  0  0  0  0
   -2.7418   -3.0922    0.1065 H   0  0  0  0  0  0  0  0  0  0  0  0
    1.7598   -3.2290    0.6021 H   0  0  0  0  0  0  0  0  0  0  0  0
    0.4899   -3.3805   -0.6270 H   0  0  0  0  0  0  0  0  0  0  0  0
   -4.1382   -1.2081   -0.7549 H   0  0  0  0  0  0  0  0  0  0  0  0
    0.5051    0.7889    0.9525 H   0  0  0  0  0  0  0  0  0  0  0  0
   -3.9868    1.5876   -1.0854 H   0  0  0  0  0  0  0  0  0  0  0  0
   -2.4465    3.4982   -0.6986 H   0  0  0  0  0  0  0  0  0  0  0  0
    1.0517   -1.3474   -1.5357 H   0  0  0  0  0  0  0  0  0  0  0  0
    3.6909    0.8849   -0.7850 H   0  0  0  0  0  0  0  0  0  0  0  0
    3.5848   -0.3080   -2.1071 H   0  0  0  0  0  0  0  0  0  0  0  0
    2.1594    0.6659   -1.6560 H   0  0  0  0  0  0  0  0  0  0  0  0
    1.7521    4.0272    1.0222 H   0  0  0  0  0  0  0  0  0  0  0  0
    1.8357    2.4358    0.2801 H   0  0  0  0  0  0  0  0  0  0  0  0
    1.1274    2.6630    1.9403 H   0  0  0  0  0  0  0  0  0  0  0  0
  1 13  1  0  0  0  0
  1 17  1  0  0  0  0
  2 15  2  0  0  0  0
  3  8  1  0  0  0  0
  3  9  2  0  0  0  0
  3 23  1  0  0  0  0
  4 10  1  0  0  0  0
  4 15  1  0  0  0  0
  4 27  1  0  0  0  0
  5  6  2  0  0  0  0
  5  7  1  0  0  0  0
  5  9  1  0  0  0  0
  6  8  1  0  0  0  0
  6 11  2  0  0  0  0
  7 10  1  0  0  0  0
  7 18  1  0  0  0  0
  7 19  1  0  0  0  0
  8 12  2  0  0  0  0
  9 20  1  0  0  0  0
 10 21  1  0  0  0  0
 10 22  1  0  0  0  0
 11 13  1  0  0  0  0
 11 24  1  0  0  0  0
 12 14  1  0  0  0  0
 12 25  1  0  0  0  0
 13 14  2  0  0  0  0
 14 26  1  0  0  0  0
 15 16  1  0  0  0  0
 16 28  1  0  0  0  0
 16 29  1  0  0  0  0
 16 30  1  0  0  0  0
 17 31  1  0  0  0  0
 17 32  1  0  0  0  0
 17 33  1  0  0  0  0
M  END
