DB01158
 OpenBabel07062211533D

 30 30  0  0  0  0  0  0  0  0999 V2000
    0.8829   -2.4389    1.6789 Br  0  0  0  0  0  0  0  0  0  0  0  0
   -1.1992    0.3566    0.2526 N   0  3  0  0  0  0  0  0  0  0  0  0
   -0.0630    0.5824    1.2395 C   0  0  0  0  0  0  0  0  0  0  0  0
   -1.2345   -1.1095   -0.1541 C   0  0  0  0  0  0  0  0  0  0  0  0
   -0.9784    1.2202   -0.9812 C   0  0  0  0  0  0  0  0  0  0  0  0
   -2.5211    0.7337    0.9058 C   0  0  0  0  0  0  0  0  0  0  0  0
    1.2832    0.2344    0.6759 C   0  0  0  0  0  0  0  0  0  0  0  0
   -2.3657   -1.3274   -1.1349 C   0  0  0  0  0  0  0  0  0  0  0  0
    1.8180   -1.0451    0.7956 C   0  0  0  0  0  0  0  0  0  0  0  0
    1.9944    1.2368    0.0216 C   0  0  0  0  0  0  0  0  0  0  0  0
    3.0738   -1.3247    0.2568 C   0  0  0  0  0  0  0  0  0  0  0  0
    3.2503    0.9570   -0.5171 C   0  0  0  0  0  0  0  0  0  0  0  0
    3.7900   -0.3237   -0.3995 C   0  0  0  0  0  0  0  0  0  0  0  0
   -0.2982    0.0336    2.1583 H   0  0  0  0  0  0  0  0  0  0  0  0
   -0.0881    1.6438    1.5230 H   0  0  0  0  0  0  0  0  0  0  0  0
   -0.3063   -1.3792   -0.6593 H   0  0  0  0  0  0  0  0  0  0  0  0
   -1.4524   -1.7002    0.7362 H   0  0  0  0  0  0  0  0  0  0  0  0
   -1.9075    1.2780   -1.5558 H   0  0  0  0  0  0  0  0  0  0  0  0
   -0.7255    2.2341   -0.6555 H   0  0  0  0  0  0  0  0  0  0  0  0
   -0.1872    0.7913   -1.6019 H   0  0  0  0  0  0  0  0  0  0  0  0
   -2.4092    1.7317    1.3422 H   0  0  0  0  0  0  0  0  0  0  0  0
   -3.3173    0.7697    0.1586 H   0  0  0  0  0  0  0  0  0  0  0  0
   -2.7460    0.0075    1.6925 H   0  0  0  0  0  0  0  0  0  0  0  0
   -2.3699   -2.3851   -1.4267 H   0  0  0  0  0  0  0  0  0  0  0  0
   -3.3556   -1.1368   -0.7132 H   0  0  0  0  0  0  0  0  0  0  0  0
   -2.2559   -0.7645   -2.0652 H   0  0  0  0  0  0  0  0  0  0  0  0
    1.6001    2.2450   -0.0680 H   0  0  0  0  0  0  0  0  0  0  0  0
    3.5108   -2.3167    0.3384 H   0  0  0  0  0  0  0  0  0  0  0  0
    3.8096    1.7372   -1.0251 H   0  0  0  0  0  0  0  0  0  0  0  0
    4.7682   -0.5411   -0.8183 H   0  0  0  0  0  0  0  0  0  0  0  0
  1  9  1  0  0  0  0
  2  3  1  0  0  0  0
  2  4  1  0  0  0  0
  2  5  1  0  0  0  0
  2  6  1  0  0  0  0
  3  7  1  0  0  0  0
  3 14  1  0  0  0  0
  3 15  1  0  0  0  0
  4  8  1  0  0  0  0
  4 16  1  0  0  0  0
  4 17  1  0  0  0  0
  5 18  1  0  0  0  0
  5 19  1  0  0  0  0
  5 20  1  0  0  0  0
  6 21  1  0  0  0  0
  6 22  1  0  0  0  0
  6 23  1  0  0  0  0
  7  9  2  0  0  0  0
  7 10  1  0  0  0  0
  8 24  1  0  0  0  0
  8 25  1  0  0  0  0
  8 26  1  0  0  0  0
  9 11  1  0  0  0  0
 10 12  2  0  0  0  0
 10 27  1  0  0  0  0
 11 13  2  0  0  0  0
 11 28  1  0  0  0  0
 12 13  1  0  0  0  0
 12 29  1  0  0  0  0
 13 30  1  0  0  0  0
M  CHG  1   2   1
M  END
