DB01018
 OpenBabel07062211533D

 24 24  0  0  0  0  0  0  0  0999 V2000
   -0.5062    2.3567   -0.5262 Cl  0  0  0  0  0  0  0  0  0  0  0  0
   -1.8236   -2.9219   -0.1599 Cl  0  0  0  0  0  0  0  0  0  0  0  0
    0.4945   -0.5661    1.8070 O   0  0  0  0  0  0  0  0  0  0  0  0
    2.2685   -1.1231    0.4266 N   0  0  0  0  0  0  0  0  0  0  0  0
    4.5028   -0.3735   -0.0640 N   0  0  0  0  0  0  0  0  0  0  0  0
    2.8205    1.1337    0.2599 N   0  0  0  0  0  0  0  0  0  0  0  0
   -1.2917   -0.2495   -0.3209 C   0  0  0  0  0  0  0  0  0  0  0  0
    0.1437   -0.6257   -0.5790 C   0  0  0  0  0  0  0  0  0  0  0  0
   -1.6575    1.0921   -0.2849 C   0  0  0  0  0  0  0  0  0  0  0  0
   -2.2412   -1.2467   -0.1213 C   0  0  0  0  0  0  0  0  0  0  0  0
   -2.9870    1.4404   -0.0465 C   0  0  0  0  0  0  0  0  0  0  0  0
   -3.5706   -0.8981    0.1173 C   0  0  0  0  0  0  0  0  0  0  0  0
    0.9701   -0.7429    0.6880 C   0  0  0  0  0  0  0  0  0  0  0  0
   -3.9435    0.4455    0.1545 C   0  0  0  0  0  0  0  0  0  0  0  0
    3.1652   -0.1964    0.2115 C   0  0  0  0  0  0  0  0  0  0  0  0
    0.6213    0.0897   -1.2570 H   0  0  0  0  0  0  0  0  0  0  0  0
    0.2130   -1.5747   -1.1229 H   0  0  0  0  0  0  0  0  0  0  0  0
   -3.2942    2.4828   -0.0138 H   0  0  0  0  0  0  0  0  0  0  0  0
   -4.3284   -1.6611    0.2760 H   0  0  0  0  0  0  0  0  0  0  0  0
   -4.9786    0.7169    0.3402 H   0  0  0  0  0  0  0  0  0  0  0  0
    5.1220    0.4153   -0.2148 H   0  0  0  0  0  0  0  0  0  0  0  0
    4.9056   -1.3021   -0.1270 H   0  0  0  0  0  0  0  0  0  0  0  0
    3.5143    1.8548    0.0928 H   0  0  0  0  0  0  0  0  0  0  0  0
    1.8808    1.4541    0.4645 H   0  0  0  0  0  0  0  0  0  0  0  0
  1  9  1  0  0  0  0
  2 10  1  0  0  0  0
  3 13  2  0  0  0  0
  4 13  1  0  0  0  0
  4 15  2  0  0  0  0
  5 15  1  0  0  0  0
  5 21  1  0  0  0  0
  5 22  1  0  0  0  0
  6 15  1  0  0  0  0
  6 23  1  0  0  0  0
  6 24  1  0  0  0  0
  7  8  1  0  0  0  0
  7  9  2  0  0  0  0
  7 10  1  0  0  0  0
  8 13  1  0  0  0  0
  8 16  1  0  0  0  0
  8 17  1  0  0  0  0
  9 11  1  0  0  0  0
 10 12  2  0  0  0  0
 11 14  2  0  0  0  0
 11 18  1  0  0  0  0
 12 14  1  0  0  0  0
 12 19  1  0  0  0  0
 14 20  1  0  0  0  0
M  END
