DB01197
 OpenBabel07062211533D

 29 29  0  0  1  0  0  0  0  0999 V2000
    3.0003    0.1187   -2.4494 S   0  0  0  0  0  0  0  0  0  0  0  0
    0.8154    1.8068   -0.7943 O   0  0  0  0  0  0  0  0  0  0  0  0
   -2.9663    2.4306   -0.4046 O   0  0  0  0  0  0  0  0  0  0  0  0
   -1.9945    1.5419    1.4560 O   0  0  0  0  0  0  0  0  0  0  0  0
   -0.4507   -0.0233   -0.1587 N   0  0  0  0  0  0  0  0  0  0  0  0
   -1.7192    0.4598   -0.6883 C   0  0  1  0  0  0  0  0  0  0  0  0
   -2.6250   -0.7661   -0.7024 C   0  0  0  0  0  0  0  0  0  0  0  0
   -2.0882   -1.6172    0.4457 C   0  0  0  0  0  0  0  0  0  0  0  0
   -0.5885   -1.3683    0.3940 C   0  0  0  0  0  0  0  0  0  0  0  0
    0.7378    0.6710   -0.3234 C   0  0  0  0  0  0  0  0  0  0  0  0
    1.9809   -0.0525    0.1295 C   0  0  1  0  0  0  0  0  0  0  0  0
   -2.2203    1.5112    0.2555 C   0  0  0  0  0  0  0  0  0  0  0  0
    3.1999    0.4124   -0.6637 C   0  0  0  0  0  0  0  0  0  0  0  0
    2.1601    0.2281    1.6168 C   0  0  0  0  0  0  0  0  0  0  0  0
   -1.5615    0.8933   -1.6816 H   0  0  0  0  0  0  0  0  0  0  0  0
   -2.4975   -1.3103   -1.6462 H   0  0  0  0  0  0  0  0  0  0  0  0
   -3.6867   -0.5309   -0.5819 H   0  0  0  0  0  0  0  0  0  0  0  0
   -2.4972   -1.2597    1.3982 H   0  0  0  0  0  0  0  0  0  0  0  0
   -2.3424   -2.6761    0.3450 H   0  0  0  0  0  0  0  0  0  0  0  0
   -0.1228   -1.4585    1.3764 H   0  0  0  0  0  0  0  0  0  0  0  0
   -0.1092   -2.0695   -0.2981 H   0  0  0  0  0  0  0  0  0  0  0  0
    1.8805   -1.1327   -0.0153 H   0  0  0  0  0  0  0  0  0  0  0  0
    3.3883    1.4820   -0.5193 H   0  0  0  0  0  0  0  0  0  0  0  0
    4.0947   -0.1248   -0.3315 H   0  0  0  0  0  0  0  0  0  0  0  0
    1.2814   -0.0413    2.2087 H   0  0  0  0  0  0  0  0  0  0  0  0
    3.0144   -0.3312    2.0129 H   0  0  0  0  0  0  0  0  0  0  0  0
    2.3478    1.2934    1.7964 H   0  0  0  0  0  0  0  0  0  0  0  0
   -3.3052    3.1275    0.1969 H   0  0  0  0  0  0  0  0  0  0  0  0
    2.8737   -1.2143   -2.3734 H   0  0  0  0  0  0  0  0  0  0  0  0
  1 13  1  0  0  0  0
  1 29  1  0  0  0  0
  2 10  2  0  0  0  0
  3 12  1  0  0  0  0
  3 28  1  0  0  0  0
  4 12  2  0  0  0  0
  5  6  1  0  0  0  0
  5  9  1  0  0  0  0
  5 10  1  0  0  0  0
  6  7  1  0  0  0  0
  6 12  1  0  0  0  0
  6 15  1  6  0  0  0
  7  8  1  0  0  0  0
  7 16  1  0  0  0  0
  7 17  1  0  0  0  0
  8  9  1  0  0  0  0
  8 18  1  0  0  0  0
  8 19  1  0  0  0  0
  9 20  1  0  0  0  0
  9 21  1  0  0  0  0
 10 11  1  0  0  0  0
 11 13  1  0  0  0  0
 11 14  1  0  0  0  0
 11 22  1  6  0  0  0
 13 23  1  0  0  0  0
 13 24  1  0  0  0  0
 14 25  1  0  0  0  0
 14 26  1  0  0  0  0
 14 27  1  0  0  0  0
M  END
