DB01192
 OpenBabel07062211533D

 41 45  0  0  1  0  0  0  0  0999 V2000
    2.5366   -0.1057   -1.3990 O   0  0  0  0  0  0  0  0  0  0  0  0
   -1.2130   -2.4530   -0.2566 O   0  0  0  0  0  0  0  0  0  0  0  0
    3.5061   -2.0890    0.1662 O   0  0  0  0  0  0  0  0  0  0  0  0
    3.9754    2.3566   -0.7651 O   0  0  0  0  0  0  0  0  0  0  0  0
   -2.5701   -0.0539   -0.4298 N   0  0  0  0  0  0  0  0  0  0  0  0
    0.2707   -0.5891   -0.7065 C   0  0  1  0  0  0  0  0  0  0  0  0
   -0.5930   -1.3035    0.3436 C   0  0  1  0  0  0  0  0  0  0  0  0
   -1.7105   -0.2877    0.7598 C   0  0  1  0  0  0  0  0  0  0  0  0
    1.6293   -1.2071   -1.0740 C   0  0  2  0  0  0  0  0  0  0  0  0
   -0.5890   -0.2619   -1.9503 C   0  0  0  0  0  0  0  0  0  0  0  0
    0.8011    0.6822   -0.1389 C   0  0  0  0  0  0  0  0  0  0  0  0
    0.2496   -1.8358    1.5164 C   0  0  0  0  0  0  0  0  0  0  0  0
   -1.1211    1.0180    1.4017 C   0  0  0  0  0  0  0  0  0  0  0  0
   -1.8687    0.5137   -1.5860 C   0  0  0  0  0  0  0  0  0  0  0  0
    0.1693    1.4921    0.7855 C   0  0  0  0  0  0  0  0  0  0  0  0
    1.3704   -2.7437    1.0125 C   0  0  0  0  0  0  0  0  0  0  0  0
    2.2817   -1.9987    0.0634 C   0  0  0  0  0  0  0  0  0  0  0  0
    2.0679    0.9315   -0.6265 C   0  0  0  0  0  0  0  0  0  0  0  0
   -3.7939    0.6822   -0.1319 C   0  0  0  0  0  0  0  0  0  0  0  0
    0.8367    2.6596    1.1555 C   0  0  0  0  0  0  0  0  0  0  0  0
    2.7372    2.0843   -0.2862 C   0  0  0  0  0  0  0  0  0  0  0  0
    2.1030    2.9597    0.6076 C   0  0  0  0  0  0  0  0  0  0  0  0
   -2.3454   -0.7794    1.5094 H   0  0  0  0  0  0  0  0  0  0  0  0
    1.5564   -1.8733   -1.9412 H   0  0  0  0  0  0  0  0  0  0  0  0
   -0.8683   -1.1940   -2.4586 H   0  0  0  0  0  0  0  0  0  0  0  0
   -0.0228    0.3250   -2.6855 H   0  0  0  0  0  0  0  0  0  0  0  0
   -0.3878   -2.4195    2.1920 H   0  0  0  0  0  0  0  0  0  0  0  0
    0.6836   -1.0225    2.1076 H   0  0  0  0  0  0  0  0  0  0  0  0
   -0.9147    0.8013    2.4583 H   0  0  0  0  0  0  0  0  0  0  0  0
   -1.8523    1.8323    1.3942 H   0  0  0  0  0  0  0  0  0  0  0  0
   -1.6238    1.5689   -1.4126 H   0  0  0  0  0  0  0  0  0  0  0  0
   -2.5302    0.4940   -2.4613 H   0  0  0  0  0  0  0  0  0  0  0  0
    0.9900   -3.6362    0.5068 H   0  0  0  0  0  0  0  0  0  0  0  0
    1.9659   -3.0823    1.8681 H   0  0  0  0  0  0  0  0  0  0  0  0
   -0.5528   -2.9169   -0.7978 H   0  0  0  0  0  0  0  0  0  0  0  0
   -4.4786    0.6370   -0.9864 H   0  0  0  0  0  0  0  0  0  0  0  0
   -3.6120    1.7378    0.0932 H   0  0  0  0  0  0  0  0  0  0  0  0
   -4.3249    0.2326    0.7142 H   0  0  0  0  0  0  0  0  0  0  0  0
    0.3961    3.3380    1.8811 H   0  0  0  0  0  0  0  0  0  0  0  0
    2.6040    3.8758    0.9128 H   0  0  0  0  0  0  0  0  0  0  0  0
    4.2418    1.6304   -1.3553 H   0  0  0  0  0  0  0  0  0  0  0  0
  1  9  1  0  0  0  0
  1 18  1  0  0  0  0
  2  7  1  0  0  0  0
  2 35  1  0  0  0  0
  3 17  2  0  0  0  0
  4 21  1  0  0  0  0
  4 41  1  0  0  0  0
  5  8  1  0  0  0  0
  5 14  1  0  0  0  0
  5 19  1  0  0  0  0
  6  7  1  1  0  0  0
  6 10  1  0  0  0  0
  6 11  1  0  0  0  0
  7  8  1  1  0  0  0
  7 12  1  0  0  0  0
  8 13  1  0  0  0  0
  8 23  1  1  0  0  0
  9  6  1  1  0  0  0
  9 17  1  0  0  0  0
  9 24  1  0  0  0  0
 10 14  1  0  0  0  0
 10 25  1  0  0  0  0
 10 26  1  0  0  0  0
 11 15  2  0  0  0  0
 11 18  1  0  0  0  0
 12 16  1  0  0  0  0
 12 27  1  0  0  0  0
 12 28  1  0  0  0  0
 13 15  1  0  0  0  0
 13 29  1  0  0  0  0
 13 30  1  0  0  0  0
 14 31  1  0  0  0  0
 14 32  1  0  0  0  0
 15 20  1  0  0  0  0
 16 17  1  0  0  0  0
 16 33  1  0  0  0  0
 16 34  1  0  0  0  0
 18 21  2  0  0  0  0
 19 36  1  0  0  0  0
 19 37  1  0  0  0  0
 19 38  1  0  0  0  0
 20 22  2  0  0  0  0
 20 39  1  0  0  0  0
 21 22  1  0  0  0  0
 22 40  1  0  0  0  0
M  END
