DB01148
 OpenBabel07062211533D

 54 57  0  0  0  0  0  0  0  0999 V2000
   -1.1794    1.3744   -0.3263 O   0  0  0  0  0  0  0  0  0  0  0  0
    2.7127    0.3240   -0.2198 O   0  0  0  0  0  0  0  0  0  0  0  0
    0.3090   -0.0782   -1.3131 O   0  0  0  0  0  0  0  0  0  0  0  0
    5.5718    3.0825    0.6669 O   0  0  0  0  0  0  0  0  0  0  0  0
   -4.6730    0.1706   -0.2974 N   0  0  0  0  0  0  0  0  0  0  0  0
   -4.4803   -1.1101    0.3974 C   0  0  0  0  0  0  0  0  0  0  0  0
   -5.9333    0.8097    0.1062 C   0  0  0  0  0  0  0  0  0  0  0  0
   -5.6305   -2.0748    0.1049 C   0  0  0  0  0  0  0  0  0  0  0  0
   -7.1310   -0.0924   -0.1960 C   0  0  0  0  0  0  0  0  0  0  0  0
   -6.9772   -1.4576    0.4644 C   0  0  0  0  0  0  0  0  0  0  0  0
   -3.5426    1.0642   -0.0456 C   0  0  0  0  0  0  0  0  0  0  0  0
   -2.2526    0.4611   -0.5784 C   0  0  0  0  0  0  0  0  0  0  0  0
    1.0671    2.0020   -0.4283 C   0  0  0  0  0  0  0  0  0  0  0  0
    0.0654    0.9916   -0.7427 C   0  0  0  0  0  0  0  0  0  0  0  0
    2.3930    1.6540   -0.1678 C   0  0  0  0  0  0  0  0  0  0  0  0
    3.3272    2.6407    0.1302 C   0  0  0  0  0  0  0  0  0  0  0  0
    5.0298    0.7890    0.3320 C   0  0  0  0  0  0  0  0  0  0  0  0
    4.0192   -0.0534    0.0376 C   0  0  0  0  0  0  0  0  0  0  0  0
    4.7182    2.2460    0.3994 C   0  0  0  0  0  0  0  0  0  0  0  0
    0.6805    3.3416   -0.3895 C   0  0  0  0  0  0  0  0  0  0  0  0
    2.9438    3.9842    0.1707 C   0  0  0  0  0  0  0  0  0  0  0  0
    4.1993   -1.5088   -0.0509 C   0  0  0  0  0  0  0  0  0  0  0  0
    1.6176    4.3310   -0.0906 C   0  0  0  0  0  0  0  0  0  0  0  0
    6.4606    0.4161    0.5933 C   0  0  0  0  0  0  0  0  0  0  0  0
    4.0284   -2.3037    1.0829 C   0  0  0  0  0  0  0  0  0  0  0  0
    4.5406   -2.0975   -1.2689 C   0  0  0  0  0  0  0  0  0  0  0  0
    4.1989   -3.6857    0.9990 C   0  0  0  0  0  0  0  0  0  0  0  0
    4.7110   -3.4794   -1.3531 C   0  0  0  0  0  0  0  0  0  0  0  0
    4.5401   -4.2734   -0.2190 C   0  0  0  0  0  0  0  0  0  0  0  0
   -4.3882   -0.9607    1.4811 H   0  0  0  0  0  0  0  0  0  0  0  0
   -3.5821   -1.6313    0.0567 H   0  0  0  0  0  0  0  0  0  0  0  0
   -6.0670    1.7487   -0.4445 H   0  0  0  0  0  0  0  0  0  0  0  0
   -5.9204    1.0578    1.1759 H   0  0  0  0  0  0  0  0  0  0  0  0
   -5.4885   -3.0034    0.6693 H   0  0  0  0  0  0  0  0  0  0  0  0
   -5.6247   -2.3433   -0.9594 H   0  0  0  0  0  0  0  0  0  0  0  0
   -7.2298   -0.2204   -1.2815 H   0  0  0  0  0  0  0  0  0  0  0  0
   -8.0525    0.3860    0.1545 H   0  0  0  0  0  0  0  0  0  0  0  0
   -7.7910   -2.1209    0.1515 H   0  0  0  0  0  0  0  0  0  0  0  0
   -7.0505   -1.3478    1.5533 H   0  0  0  0  0  0  0  0  0  0  0  0
   -3.4341    1.2945    1.0228 H   0  0  0  0  0  0  0  0  0  0  0  0
   -3.7013    2.0275   -0.5476 H   0  0  0  0  0  0  0  0  0  0  0  0
   -2.3270    0.2822   -1.6577 H   0  0  0  0  0  0  0  0  0  0  0  0
   -1.9859   -0.4695   -0.0716 H   0  0  0  0  0  0  0  0  0  0  0  0
   -0.3400    3.6505   -0.6012 H   0  0  0  0  0  0  0  0  0  0  0  0
    3.6586    4.7693    0.4005 H   0  0  0  0  0  0  0  0  0  0  0  0
    1.3151    5.3740   -0.0640 H   0  0  0  0  0  0  0  0  0  0  0  0
    6.7567    0.7345    1.5986 H   0  0  0  0  0  0  0  0  0  0  0  0
    7.1183    0.9063   -0.1325 H   0  0  0  0  0  0  0  0  0  0  0  0
    6.6466   -0.6591    0.5253 H   0  0  0  0  0  0  0  0  0  0  0  0
    3.7617   -1.8602    2.0393 H   0  0  0  0  0  0  0  0  0  0  0  0
    4.6767   -1.4919   -2.1617 H   0  0  0  0  0  0  0  0  0  0  0  0
    4.0657   -4.3041    1.8818 H   0  0  0  0  0  0  0  0  0  0  0  0
    4.9766   -3.9372   -2.3015 H   0  0  0  0  0  0  0  0  0  0  0  0
    4.6727   -5.3494   -0.2846 H   0  0  0  0  0  0  0  0  0  0  0  0
  1 12  1  0  0  0  0
  1 14  1  0  0  0  0
  2 15  1  0  0  0  0
  2 18  1  0  0  0  0
  3 14  2  0  0  0  0
  4 19  2  0  0  0  0
  5  6  1  0  0  0  0
  5  7  1  0  0  0  0
  5 11  1  0  0  0  0
  6  8  1  0  0  0  0
  6 30  1  0  0  0  0
  6 31  1  0  0  0  0
  7  9  1  0  0  0  0
  7 32  1  0  0  0  0
  7 33  1  0  0  0  0
  8 10  1  0  0  0  0
  8 34  1  0  0  0  0
  8 35  1  0  0  0  0
  9 10  1  0  0  0  0
  9 36  1  0  0  0  0
  9 37  1  0  0  0  0
 10 38  1  0  0  0  0
 10 39  1  0  0  0  0
 11 12  1  0  0  0  0
 11 40  1  0  0  0  0
 11 41  1  0  0  0  0
 12 42  1  0  0  0  0
 12 43  1  0  0  0  0
 13 14  1  0  0  0  0
 13 15  2  0  0  0  0
 13 20  1  0  0  0  0
 15 16  1  0  0  0  0
 16 19  1  0  0  0  0
 16 21  2  0  0  0  0
 17 18  2  0  0  0  0
 17 19  1  0  0  0  0
 17 24  1  0  0  0  0
 18 22  1  0  0  0  0
 20 23  2  0  0  0  0
 20 44  1  0  0  0  0
 21 23  1  0  0  0  0
 21 45  1  0  0  0  0
 22 25  2  0  0  0  0
 22 26  1  0  0  0  0
 23 46  1  0  0  0  0
 24 47  1  0  0  0  0
 24 48  1  0  0  0  0
 24 49  1  0  0  0  0
 25 27  1  0  0  0  0
 25 50  1  0  0  0  0
 26 28  2  0  0  0  0
 26 51  1  0  0  0  0
 27 29  2  0  0  0  0
 27 52  1  0  0  0  0
 28 29  1  0  0  0  0
 28 53  1  0  0  0  0
 29 54  1  0  0  0  0
M  END
