DB01147
 OpenBabel07062211533D

 47 50  0  0  1  0  0  0  0  0999 V2000
   -2.8117   -2.0388   -2.5410 Cl  0  0  0  0  0  0  0  0  0  0  0  0
    0.9043    1.1082    1.1718 S   0  0  0  0  0  0  0  0  0  0  0  0
    0.9750    0.2258   -3.1443 O   0  0  0  0  0  0  0  0  0  0  0  0
    5.0346   -0.2753   -0.7073 O   0  0  0  0  0  0  0  0  0  0  0  0
    4.3967    1.4994   -1.9876 O   0  0  0  0  0  0  0  0  0  0  0  0
   -2.3029    2.5133    0.3001 O   0  0  0  0  0  0  0  0  0  0  0  0
   -5.3340   -0.3851    0.7432 O   0  0  0  0  0  0  0  0  0  0  0  0
    1.8608    1.2891   -1.2324 N   0  0  0  0  0  0  0  0  0  0  0  0
   -1.2809    0.8859   -0.9733 N   0  0  0  0  0  0  0  0  0  0  0  0
   -4.4881   -1.4822    0.6339 N   0  0  0  0  0  0  0  0  0  0  0  0
    0.9328    2.0541   -0.3945 C   0  0  1  0  0  0  0  0  0  0  0  0
    2.6712    0.5728    0.9254 C   0  0  0  0  0  0  0  0  0  0  0  0
    2.7795    0.3640   -0.6004 C   0  0  2  0  0  0  0  0  0  0  0  0
   -0.1612    1.7267   -1.4198 C   0  0  1  0  0  0  0  0  0  0  0  0
    0.9366    0.9561   -2.1801 C   0  0  0  0  0  0  0  0  0  0  0  0
    3.5810    1.6758    1.4835 C   0  0  0  0  0  0  0  0  0  0  0  0
    2.9055   -0.7340    1.6853 C   0  0  0  0  0  0  0  0  0  0  0  0
    4.1323    0.6159   -1.1859 C   0  0  0  0  0  0  0  0  0  0  0  0
   -2.2904    1.3587   -0.1257 C   0  0  0  0  0  0  0  0  0  0  0  0
   -3.3586    0.4069    0.2075 C   0  0  0  0  0  0  0  0  0  0  0  0
   -3.2979   -0.9700    0.3081 C   0  0  0  0  0  0  0  0  0  0  0  0
   -4.6338    0.7483    0.4820 C   0  0  0  0  0  0  0  0  0  0  0  0
   -2.1643   -1.8352    0.1115 C   0  0  0  0  0  0  0  0  0  0  0  0
   -5.3861    2.0082    0.5557 C   0  0  0  0  0  0  0  0  0  0  0  0
   -1.8559   -2.3728   -1.1383 C   0  0  0  0  0  0  0  0  0  0  0  0
   -1.3632   -2.1309    1.2145 C   0  0  0  0  0  0  0  0  0  0  0  0
   -0.7468   -3.2060   -1.2848 C   0  0  0  0  0  0  0  0  0  0  0  0
   -0.2540   -2.9639    1.0680 C   0  0  0  0  0  0  0  0  0  0  0  0
    0.0541   -3.5014   -0.1817 C   0  0  0  0  0  0  0  0  0  0  0  0
    1.2091    3.1090   -0.3087 H   0  0  0  0  0  0  0  0  0  0  0  0
    2.4709   -0.6485   -0.8940 H   0  0  0  0  0  0  0  0  0  0  0  0
   -0.5172    2.5971   -1.9841 H   0  0  0  0  0  0  0  0  0  0  0  0
    3.4683    2.6207    0.9401 H   0  0  0  0  0  0  0  0  0  0  0  0
    3.3700    1.8709    2.5418 H   0  0  0  0  0  0  0  0  0  0  0  0
    4.6365    1.3888    1.4222 H   0  0  0  0  0  0  0  0  0  0  0  0
    2.7037   -0.6195    2.7567 H   0  0  0  0  0  0  0  0  0  0  0  0
    2.2737   -1.5433    1.3084 H   0  0  0  0  0  0  0  0  0  0  0  0
    3.9451   -1.0651    1.5877 H   0  0  0  0  0  0  0  0  0  0  0  0
   -1.3798   -0.0320   -1.3872 H   0  0  0  0  0  0  0  0  0  0  0  0
    5.9298   -0.1262   -1.0793 H   0  0  0  0  0  0  0  0  0  0  0  0
   -6.4642    1.8280    0.6152 H   0  0  0  0  0  0  0  0  0  0  0  0
   -5.0898    2.5797    1.4407 H   0  0  0  0  0  0  0  0  0  0  0  0
   -5.1997    2.6239   -0.3299 H   0  0  0  0  0  0  0  0  0  0  0  0
   -1.5867   -1.7206    2.1967 H   0  0  0  0  0  0  0  0  0  0  0  0
   -0.4913   -3.6321   -2.2516 H   0  0  0  0  0  0  0  0  0  0  0  0
    0.3683   -3.1953    1.9275 H   0  0  0  0  0  0  0  0  0  0  0  0
    0.9185   -4.1490   -0.2956 H   0  0  0  0  0  0  0  0  0  0  0  0
  1 25  1  0  0  0  0
  2 11  1  0  0  0  0
  2 12  1  0  0  0  0
  3 15  2  0  0  0  0
  4 18  1  0  0  0  0
  4 40  1  0  0  0  0
  5 18  2  0  0  0  0
  6 19  2  0  0  0  0
  7 10  1  0  0  0  0
  7 22  1  0  0  0  0
  8 11  1  0  0  0  0
  8 13  1  0  0  0  0
  8 15  1  0  0  0  0
  9 14  1  0  0  0  0
  9 19  1  0  0  0  0
  9 39  1  0  0  0  0
 10 21  2  0  0  0  0
 11 14  1  6  0  0  0
 11 30  1  0  0  0  0
 12 13  1  0  0  0  0
 12 16  1  0  0  0  0
 12 17  1  0  0  0  0
 13 18  1  0  0  0  0
 13 31  1  6  0  0  0
 14 15  1  0  0  0  0
 14 32  1  6  0  0  0
 16 33  1  0  0  0  0
 16 34  1  0  0  0  0
 16 35  1  0  0  0  0
 17 36  1  0  0  0  0
 17 37  1  0  0  0  0
 17 38  1  0  0  0  0
 19 20  1  0  0  0  0
 20 21  1  0  0  0  0
 20 22  2  0  0  0  0
 21 23  1  0  0  0  0
 22 24  1  0  0  0  0
 23 25  2  0  0  0  0
 23 26  1  0  0  0  0
 24 41  1  0  0  0  0
 24 42  1  0  0  0  0
 24 43  1  0  0  0  0
 25 27  1  0  0  0  0
 26 28  2  0  0  0  0
 26 44  1  0  0  0  0
 27 29  2  0  0  0  0
 27 45  1  0  0  0  0
 28 29  1  0  0  0  0
 28 46  1  0  0  0  0
 29 47  1  0  0  0  0
M  END
