DB01172
 OpenBabel07062211533D

 69 71  0  0  1  0  0  0  0  0999 V2000
   -2.6122    0.8092    0.2672 O   0  0  0  0  0  0  0  0  0  0  0  0
    2.1129    0.1508    0.7540 O   0  0  0  0  0  0  0  0  0  0  0  0
   -0.2954   -0.7876   -0.4348 O   0  0  0  0  0  0  0  0  0  0  0  0
   -3.2106   -0.7799   -1.3848 O   0  0  0  0  0  0  0  0  0  0  0  0
    3.6405   -0.4140   -0.9687 O   0  0  0  0  0  0  0  0  0  0  0  0
   -5.1032    2.0048    0.0329 O   0  0  0  0  0  0  0  0  0  0  0  0
    1.8467   -2.5644    1.4112 O   0  0  0  0  0  0  0  0  0  0  0  0
   -5.2181   -2.7242    1.0152 O   0  0  0  0  0  0  0  0  0  0  0  0
    4.6081   -3.3555    1.7630 O   0  0  0  0  0  0  0  0  0  0  0  0
    6.4235   -1.1722    1.3267 O   0  0  0  0  0  0  0  0  0  0  0  0
   -1.7958   -3.1084   -1.5097 O   0  0  0  0  0  0  0  0  0  0  0  0
   -2.2335    3.6540   -0.0692 N   0  0  0  0  0  0  0  0  0  0  0  0
    2.5781    3.0011    0.4590 N   0  0  0  0  0  0  0  0  0  0  0  0
   -6.7996   -0.3074    0.7468 N   0  0  0  0  0  0  0  0  0  0  0  0
    5.4184    1.5767   -1.8471 N   0  0  0  0  0  0  0  0  0  0  0  0
   -1.3548    1.3598   -0.1343 C   0  0  2  0  0  0  0  0  0  0  0  0
    1.1567    1.0219    0.1426 C   0  0  1  0  0  0  0  0  0  0  0  0
   -0.2389    0.4184    0.3332 C   0  0  2  0  0  0  0  0  0  0  0  0
   -1.2206    2.7549    0.4906 C   0  0  1  0  0  0  0  0  0  0  0  0
    1.2687    2.4196    0.7653 C   0  0  2  0  0  0  0  0  0  0  0  0
    0.1692    3.3481    0.2423 C   0  0  0  0  0  0  0  0  0  0  0  0
   -3.4372    0.5294   -0.8623 C   0  0  1  0  0  0  0  0  0  0  0  0
    2.5503   -0.8557   -0.1572 C   0  0  1  0  0  0  0  0  0  0  0  0
   -4.9137    0.6979   -0.4976 C   0  0  1  0  0  0  0  0  0  0  0  0
   -5.3529   -0.3740    0.5087 C   0  0  2  0  0  0  0  0  0  0  0  0
    2.9028   -2.1691    0.5431 C   0  0  1  0  0  0  0  0  0  0  0  0
   -4.9841   -1.7707   -0.0184 C   0  0  1  0  0  0  0  0  0  0  0  0
    4.1985   -2.0518    1.3432 C   0  0  2  0  0  0  0  0  0  0  0  0
   -3.5102   -1.8237   -0.4515 C   0  0  1  0  0  0  0  0  0  0  0  0
    5.3115   -1.4539    0.4801 C   0  0  1  0  0  0  0  0  0  0  0  0
    4.8406   -0.1744   -0.2246 C   0  0  1  0  0  0  0  0  0  0  0  0
    5.8791    0.3516   -1.2115 C   0  0  0  0  0  0  0  0  0  0  0  0
   -3.1602   -3.1438   -1.1338 C   0  0  0  0  0  0  0  0  0  0  0  0
   -1.2815    1.4460   -1.2283 H   0  0  0  0  0  0  0  0  0  0  0  0
    1.3752    1.1079   -0.9331 H   0  0  0  0  0  0  0  0  0  0  0  0
   -0.3926    0.1209    1.3773 H   0  0  0  0  0  0  0  0  0  0  0  0
   -1.4000    2.6873    1.5715 H   0  0  0  0  0  0  0  0  0  0  0  0
    1.1907    2.3366    1.8568 H   0  0  0  0  0  0  0  0  0  0  0  0
    0.2472    4.3270    0.7344 H   0  0  0  0  0  0  0  0  0  0  0  0
    0.3115    3.5247   -0.8335 H   0  0  0  0  0  0  0  0  0  0  0  0
   -3.2368    1.2466   -1.6683 H   0  0  0  0  0  0  0  0  0  0  0  0
    1.7767   -1.1072   -0.8801 H   0  0  0  0  0  0  0  0  0  0  0  0
   -5.5237    0.6023   -1.4060 H   0  0  0  0  0  0  0  0  0  0  0  0
   -4.8683   -0.1951    1.4772 H   0  0  0  0  0  0  0  0  0  0  0  0
    3.0256   -2.9614   -0.2065 H   0  0  0  0  0  0  0  0  0  0  0  0
   -5.6267   -2.0256   -0.8708 H   0  0  0  0  0  0  0  0  0  0  0  0
    4.0438   -1.4678    2.2579 H   0  0  0  0  0  0  0  0  0  0  0  0
   -2.8501   -1.7157    0.4190 H   0  0  0  0  0  0  0  0  0  0  0  0
   -2.1494    4.5744    0.3607 H   0  0  0  0  0  0  0  0  0  0  0  0
   -3.1605    3.3100    0.1749 H   0  0  0  0  0  0  0  0  0  0  0  0
    2.6607    3.9136    0.9055 H   0  0  0  0  0  0  0  0  0  0  0  0
    3.3109    2.4184    0.8604 H   0  0  0  0  0  0  0  0  0  0  0  0
    5.6427   -2.1941   -0.2583 H   0  0  0  0  0  0  0  0  0  0  0  0
    4.6535    0.6081    0.5224 H   0  0  0  0  0  0  0  0  0  0  0  0
   -0.3139   -0.5461   -1.3766 H   0  0  0  0  0  0  0  0  0  0  0  0
    6.8283    0.5495   -0.7030 H   0  0  0  0  0  0  0  0  0  0  0  0
    6.0648   -0.3928   -1.9946 H   0  0  0  0  0  0  0  0  0  0  0  0
   -3.7536   -3.2812   -2.0438 H   0  0  0  0  0  0  0  0  0  0  0  0
   -3.3215   -3.9945   -0.4646 H   0  0  0  0  0  0  0  0  0  0  0  0
   -7.0391    0.6056    1.1310 H   0  0  0  0  0  0  0  0  0  0  0  0
   -7.0608   -0.9965    1.4509 H   0  0  0  0  0  0  0  0  0  0  0  0
   -4.9508    2.6357   -0.6913 H   0  0  0  0  0  0  0  0  0  0  0  0
    1.0338   -2.6142    0.8798 H   0  0  0  0  0  0  0  0  0  0  0  0
   -4.6326   -2.5082    1.7608 H   0  0  0  0  0  0  0  0  0  0  0  0
    4.7424   -3.9014    0.9695 H   0  0  0  0  0  0  0  0  0  0  0  0
    6.1501   -0.4922    1.9657 H   0  0  0  0  0  0  0  0  0  0  0  0
    6.0917    1.8668   -2.5548 H   0  0  0  0  0  0  0  0  0  0  0  0
    4.5429    1.4007   -2.3386 H   0  0  0  0  0  0  0  0  0  0  0  0
   -1.5952   -3.9554   -1.9431 H   0  0  0  0  0  0  0  0  0  0  0  0
  1 16  1  0  0  0  0
  1 22  1  0  0  0  0
  2 17  1  0  0  0  0
  2 23  1  0  0  0  0
  3 18  1  0  0  0  0
  3 55  1  0  0  0  0
  4 22  1  0  0  0  0
  4 29  1  0  0  0  0
  5 23  1  0  0  0  0
  5 31  1  0  0  0  0
  6 24  1  0  0  0  0
  6 62  1  0  0  0  0
  7 26  1  0  0  0  0
  7 63  1  0  0  0  0
  8 27  1  0  0  0  0
  8 64  1  0  0  0  0
  9 28  1  0  0  0  0
  9 65  1  0  0  0  0
 10 30  1  0  0  0  0
 10 66  1  0  0  0  0
 11 33  1  0  0  0  0
 11 69  1  0  0  0  0
 12 19  1  0  0  0  0
 12 49  1  0  0  0  0
 12 50  1  0  0  0  0
 13 20  1  0  0  0  0
 13 51  1  0  0  0  0
 13 52  1  0  0  0  0
 14 25  1  0  0  0  0
 14 60  1  0  0  0  0
 14 61  1  0  0  0  0
 15 32  1  0  0  0  0
 15 67  1  0  0  0  0
 15 68  1  0  0  0  0
 16 18  1  1  0  0  0
 16 34  1  0  0  0  0
 17 18  1  1  0  0  0
 17 35  1  0  0  0  0
 18 36  1  1  0  0  0
 19 16  1  6  0  0  0
 19 21  1  0  0  0  0
 19 37  1  0  0  0  0
 20 17  1  6  0  0  0
 20 21  1  0  0  0  0
 20 38  1  0  0  0  0
 21 39  1  0  0  0  0
 21 40  1  0  0  0  0
 22 24  1  1  0  0  0
 22 41  1  0  0  0  0
 23 26  1  1  0  0  0
 23 42  1  0  0  0  0
 24 25  1  1  0  0  0
 24 43  1  0  0  0  0
 25 27  1  6  0  0  0
 25 44  1  0  0  0  0
 26 28  1  1  0  0  0
 26 45  1  0  0  0  0
 27 29  1  6  0  0  0
 27 46  1  0  0  0  0
 28 30  1  6  0  0  0
 28 47  1  0  0  0  0
 29 33  1  0  0  0  0
 29 48  1  1  0  0  0
 30 31  1  6  0  0  0
 30 53  1  0  0  0  0
 31 32  1  0  0  0  0
 31 54  1  1  0  0  0
 32 56  1  0  0  0  0
 32 57  1  0  0  0  0
 33 58  1  0  0  0  0
 33 59  1  0  0  0  0
M  END
