DB01190
 OpenBabel07062211533D

 60 61  0  0  1  0  0  0  0  0999 V2000
   -1.6329   -2.9025   -1.3756 Cl  0  0  0  0  0  0  0  0  0  0  0  0
   -5.5733   -0.9232   -1.4605 S   0  0  0  0  0  0  0  0  0  0  0  0
   -3.7821   -0.7600    0.5895 O   0  0  0  0  0  0  0  0  0  0  0  0
   -2.4281    1.6657    1.4158 O   0  0  0  0  0  0  0  0  0  0  0  0
   -4.0016    3.3320   -0.1514 O   0  0  0  0  0  0  0  0  0  0  0  0
   -6.3861    1.7417   -0.1874 O   0  0  0  0  0  0  0  0  0  0  0  0
    0.6860    0.6824    1.7703 O   0  0  0  0  0  0  0  0  0  0  0  0
    2.4072    2.1158    0.3383 N   0  0  0  0  0  0  0  0  0  0  0  0
   -0.2272   -0.2619   -0.1514 N   0  0  0  0  0  0  0  0  0  0  0  0
    4.1417    0.5839    0.3832 C   0  0  2  0  0  0  0  0  0  0  0  0
    1.8462    0.9182   -0.2982 C   0  0  1  0  0  0  0  0  0  0  0  0
    2.9827   -0.1061   -0.3336 C   0  0  0  0  0  0  0  0  0  0  0  0
    3.8560    2.0581    0.1333 C   0  0  0  0  0  0  0  0  0  0  0  0
   -2.6641   -0.1884   -0.1074 C   0  0  2  0  0  0  0  0  0  0  0  0
   -1.4053   -0.8417    0.4544 C   0  0  1  0  0  0  0  0  0  0  0  0
   -2.6438    1.3372    0.0411 C   0  0  1  0  0  0  0  0  0  0  0  0
    5.5087    0.1430   -0.1112 C   0  0  0  0  0  0  0  0  0  0  0  0
   -3.9735    1.9335   -0.4261 C   0  0  1  0  0  0  0  0  0  0  0  0
    0.7179    0.4519    0.5643 C   0  0  0  0  0  0  0  0  0  0  0  0
   -5.1382    1.2566    0.2964 C   0  0  2  0  0  0  0  0  0  0  0  0
   -5.0662   -0.2729    0.1773 C   0  0  1  0  0  0  0  0  0  0  0  0
   -1.4183   -2.3790    0.3255 C   0  0  2  0  0  0  0  0  0  0  0  0
    1.8290    3.3546   -0.1644 C   0  0  0  0  0  0  0  0  0  0  0  0
    5.7035   -1.3640    0.0478 C   0  0  0  0  0  0  0  0  0  0  0  0
   -0.1561   -3.0275    0.8878 C   0  0  0  0  0  0  0  0  0  0  0  0
    7.0822   -1.8009   -0.4206 C   0  0  0  0  0  0  0  0  0  0  0  0
   -5.9235   -2.6189   -0.9515 C   0  0  0  0  0  0  0  0  0  0  0  0
    4.0631    0.3787    1.4607 H   0  0  0  0  0  0  0  0  0  0  0  0
    1.5017    1.1182   -1.3210 H   0  0  0  0  0  0  0  0  0  0  0  0
    3.2440   -0.3151   -1.3785 H   0  0  0  0  0  0  0  0  0  0  0  0
    2.7284   -1.0559    0.1493 H   0  0  0  0  0  0  0  0  0  0  0  0
    4.1349    2.3468   -0.8884 H   0  0  0  0  0  0  0  0  0  0  0  0
    4.3910    2.6987    0.8417 H   0  0  0  0  0  0  0  0  0  0  0  0
   -2.7547   -0.4137   -1.1762 H   0  0  0  0  0  0  0  0  0  0  0  0
   -1.3676   -0.6425    1.5339 H   0  0  0  0  0  0  0  0  0  0  0  0
   -1.8251    1.7938   -0.5248 H   0  0  0  0  0  0  0  0  0  0  0  0
    6.2863    0.6782    0.4477 H   0  0  0  0  0  0  0  0  0  0  0  0
    5.6362    0.4153   -1.1666 H   0  0  0  0  0  0  0  0  0  0  0  0
   -4.0873    1.8210   -1.5105 H   0  0  0  0  0  0  0  0  0  0  0  0
   -5.0970    1.5362    1.3567 H   0  0  0  0  0  0  0  0  0  0  0  0
   -0.0950   -0.4033   -1.1487 H   0  0  0  0  0  0  0  0  0  0  0  0
   -5.7959   -0.6780    0.8877 H   0  0  0  0  0  0  0  0  0  0  0  0
   -2.2777   -2.7837    0.8714 H   0  0  0  0  0  0  0  0  0  0  0  0
    0.7498    3.3801    0.0224 H   0  0  0  0  0  0  0  0  0  0  0  0
    1.9943    3.4851   -1.2399 H   0  0  0  0  0  0  0  0  0  0  0  0
    2.2621    4.2157    0.3561 H   0  0  0  0  0  0  0  0  0  0  0  0
    5.5754   -1.6473    1.0992 H   0  0  0  0  0  0  0  0  0  0  0  0
    4.9547   -1.9158   -0.5307 H   0  0  0  0  0  0  0  0  0  0  0  0
    0.0045   -2.7234    1.9276 H   0  0  0  0  0  0  0  0  0  0  0  0
   -0.2432   -4.1197    0.8740 H   0  0  0  0  0  0  0  0  0  0  0  0
    0.7370   -2.7600    0.3136 H   0  0  0  0  0  0  0  0  0  0  0  0
   -3.0290    1.1283    1.9585 H   0  0  0  0  0  0  0  0  0  0  0  0
   -3.2430    3.7346   -0.6075 H   0  0  0  0  0  0  0  0  0  0  0  0
    7.2306   -1.5633   -1.4789 H   0  0  0  0  0  0  0  0  0  0  0  0
    7.2007   -2.8817   -0.2953 H   0  0  0  0  0  0  0  0  0  0  0  0
    7.8685   -1.3041    0.1569 H   0  0  0  0  0  0  0  0  0  0  0  0
   -7.0893    1.2748    0.2955 H   0  0  0  0  0  0  0  0  0  0  0  0
   -6.2273   -3.2003   -1.8263 H   0  0  0  0  0  0  0  0  0  0  0  0
   -6.7389   -2.6413   -0.2238 H   0  0  0  0  0  0  0  0  0  0  0  0
   -5.0327   -3.0840   -0.5217 H   0  0  0  0  0  0  0  0  0  0  0  0
  1 22  1  0  0  0  0
  2 21  1  0  0  0  0
  2 27  1  0  0  0  0
  3 14  1  0  0  0  0
  3 21  1  0  0  0  0
  4 16  1  0  0  0  0
  4 52  1  0  0  0  0
  5 18  1  0  0  0  0
  5 53  1  0  0  0  0
  6 20  1  0  0  0  0
  6 57  1  0  0  0  0
  7 19  2  0  0  0  0
  8 11  1  0  0  0  0
  8 13  1  0  0  0  0
  8 23  1  0  0  0  0
  9 15  1  0  0  0  0
  9 19  1  0  0  0  0
  9 41  1  0  0  0  0
 10 12  1  0  0  0  0
 10 13  1  0  0  0  0
 10 17  1  0  0  0  0
 10 28  1  1  0  0  0
 11 12  1  0  0  0  0
 11 19  1  0  0  0  0
 11 29  1  6  0  0  0
 12 30  1  0  0  0  0
 12 31  1  0  0  0  0
 13 32  1  0  0  0  0
 13 33  1  0  0  0  0
 14 15  1  0  0  0  0
 14 16  1  1  0  0  0
 14 34  1  0  0  0  0
 15 22  1  0  0  0  0
 15 35  1  1  0  0  0
 16 18  1  6  0  0  0
 16 36  1  0  0  0  0
 17 24  1  0  0  0  0
 17 37  1  0  0  0  0
 17 38  1  0  0  0  0
 18 20  1  1  0  0  0
 18 39  1  0  0  0  0
 20 21  1  6  0  0  0
 20 40  1  0  0  0  0
 21 42  1  1  0  0  0
 22 25  1  0  0  0  0
 22 43  1  1  0  0  0
 23 44  1  0  0  0  0
 23 45  1  0  0  0  0
 23 46  1  0  0  0  0
 24 26  1  0  0  0  0
 24 47  1  0  0  0  0
 24 48  1  0  0  0  0
 25 49  1  0  0  0  0
 25 50  1  0  0  0  0
 25 51  1  0  0  0  0
 26 54  1  0  0  0  0
 26 55  1  0  0  0  0
 26 56  1  0  0  0  0
 27 58  1  0  0  0  0
 27 59  1  0  0  0  0
 27 60  1  0  0  0  0
M  END
