DB01581
 OpenBabel07062211533D

 30 31  0  0  0  0  0  0  0  0999 V2000
   -0.4440    2.8664    0.0393 S   0  0  0  0  0  0  0  0  0  0  0  0
   -1.1904    3.7483    0.9287 O   0  0  0  0  0  0  0  0  0  0  0  0
   -0.1023    3.3411   -1.2961 O   0  0  0  0  0  0  0  0  0  0  0  0
    0.9879    2.3683    0.8579 N   0  0  0  0  0  0  0  0  0  0  0  0
    1.7398    0.1410    1.0545 N   0  0  0  0  0  0  0  0  0  0  0  0
    2.3220    1.4712   -0.8687 N   0  0  0  0  0  0  0  0  0  0  0  0
   -3.5051   -2.2061   -0.4688 N   0  0  0  0  0  0  0  0  0  0  0  0
   -1.3426    1.3769   -0.1099 C   0  0  0  0  0  0  0  0  0  0  0  0
   -2.2342    0.9969    0.8932 C   0  0  0  0  0  0  0  0  0  0  0  0
   -1.1690    0.5667   -1.2322 C   0  0  0  0  0  0  0  0  0  0  0  0
   -2.7785   -1.0032   -0.3477 C   0  0  0  0  0  0  0  0  0  0  0  0
   -2.9521   -0.1932    0.7742 C   0  0  0  0  0  0  0  0  0  0  0  0
   -1.8869   -0.6232   -1.3511 C   0  0  0  0  0  0  0  0  0  0  0  0
    1.7273    1.2605    0.3152 C   0  0  0  0  0  0  0  0  0  0  0  0
    2.4424   -0.8773    0.5166 C   0  0  0  0  0  0  0  0  0  0  0  0
    3.1025   -0.7989   -0.6928 C   0  0  0  0  0  0  0  0  0  0  0  0
    3.0068    0.4119   -1.3477 C   0  0  0  0  0  0  0  0  0  0  0  0
    2.4883   -2.1474    1.2984 C   0  0  0  0  0  0  0  0  0  0  0  0
    0.9121    2.3344    1.8829 H   0  0  0  0  0  0  0  0  0  0  0  0
   -2.3801    1.6079    1.7795 H   0  0  0  0  0  0  0  0  0  0  0  0
   -0.4799    0.8418   -2.0257 H   0  0  0  0  0  0  0  0  0  0  0  0
   -3.6427   -0.4793    1.5635 H   0  0  0  0  0  0  0  0  0  0  0  0
   -1.7425   -1.2461   -2.2300 H   0  0  0  0  0  0  0  0  0  0  0  0
    3.6614   -1.6268   -1.1097 H   0  0  0  0  0  0  0  0  0  0  0  0
    3.4920    0.5684   -2.3052 H   0  0  0  0  0  0  0  0  0  0  0  0
    1.9213   -2.0559    2.2309 H   0  0  0  0  0  0  0  0  0  0  0  0
    2.0530   -2.9673    0.7183 H   0  0  0  0  0  0  0  0  0  0  0  0
    3.5220   -2.3996    1.5552 H   0  0  0  0  0  0  0  0  0  0  0  0
   -4.1504   -2.4831    0.2590 H   0  0  0  0  0  0  0  0  0  0  0  0
   -3.3781   -2.7945   -1.2815 H   0  0  0  0  0  0  0  0  0  0  0  0
  1  2  2  0  0  0  0
  1  3  2  0  0  0  0
  1  4  1  0  0  0  0
  1  8  1  0  0  0  0
  4 14  1  0  0  0  0
  4 19  1  0  0  0  0
  5 14  2  0  0  0  0
  5 15  1  0  0  0  0
  6 14  1  0  0  0  0
  6 17  2  0  0  0  0
  7 11  1  0  0  0  0
  7 29  1  0  0  0  0
  7 30  1  0  0  0  0
  8  9  2  0  0  0  0
  8 10  1  0  0  0  0
  9 12  1  0  0  0  0
  9 20  1  0  0  0  0
 10 13  2  0  0  0  0
 10 21  1  0  0  0  0
 11 12  2  0  0  0  0
 11 13  1  0  0  0  0
 12 22  1  0  0  0  0
 13 23  1  0  0  0  0
 15 16  2  0  0  0  0
 15 18  1  0  0  0  0
 16 17  1  0  0  0  0
 16 24  1  0  0  0  0
 17 25  1  0  0  0  0
 18 26  1  0  0  0  0
 18 27  1  0  0  0  0
 18 28  1  0  0  0  0
M  END
