DB01393
 OpenBabel07062211533D

 45 46  0  0  0  0  0  0  0  0999 V2000
   -4.7284    4.8878   -0.1458 Cl  0  0  0  0  0  0  0  0  0  0  0  0
    3.5874   -0.1703    1.0047 O   0  0  0  0  0  0  0  0  0  0  0  0
    5.4767    2.5555   -0.3552 O   0  0  0  0  0  0  0  0  0  0  0  0
    5.8484    1.1188    1.3524 O   0  0  0  0  0  0  0  0  0  0  0  0
   -4.3879   -1.7265    0.4674 O   0  0  0  0  0  0  0  0  0  0  0  0
   -2.4087   -1.3678   -0.6877 N   0  0  0  0  0  0  0  0  0  0  0  0
    3.8124    0.8596    0.0416 C   0  0  0  0  0  0  0  0  0  0  0  0
   -1.1502   -3.1785    0.4236 C   0  0  0  0  0  0  0  0  0  0  0  0
    0.1018   -2.3834    0.5778 C   0  0  0  0  0  0  0  0  0  0  0  0
   -2.0078   -2.7466   -0.7723 C   0  0  0  0  0  0  0  0  0  0  0  0
    2.4388   -0.8991    0.8638 C   0  0  0  0  0  0  0  0  0  0  0  0
    3.8941    0.2088   -1.3360 C   0  0  0  0  0  0  0  0  0  0  0  0
    2.6653    1.8605    0.1433 C   0  0  0  0  0  0  0  0  0  0  0  0
    1.2734   -2.7981   -0.0555 C   0  0  0  0  0  0  0  0  0  0  0  0
    0.1016   -1.2248    1.3544 C   0  0  0  0  0  0  0  0  0  0  0  0
    2.4446   -2.0542    0.0878 C   0  0  0  0  0  0  0  0  0  0  0  0
    1.2728   -0.4808    1.4977 C   0  0  0  0  0  0  0  0  0  0  0  0
    5.1389    1.5000    0.4289 C   0  0  0  0  0  0  0  0  0  0  0  0
   -3.5840   -0.9658   -0.0650 C   0  0  0  0  0  0  0  0  0  0  0  0
   -3.8683    0.4922   -0.0854 C   0  0  0  0  0  0  0  0  0  0  0  0
   -5.1798    0.9154   -0.0223 C   0  0  0  0  0  0  0  0  0  0  0  0
   -2.8127    1.3765   -0.1657 C   0  0  0  0  0  0  0  0  0  0  0  0
   -5.4476    2.2842   -0.0404 C   0  0  0  0  0  0  0  0  0  0  0  0
   -3.0804    2.7454   -0.1838 C   0  0  0  0  0  0  0  0  0  0  0  0
   -4.3978    3.1993   -0.1213 C   0  0  0  0  0  0  0  0  0  0  0  0
   -1.7424   -3.1064    1.3458 H   0  0  0  0  0  0  0  0  0  0  0  0
   -0.9021   -4.2425    0.3192 H   0  0  0  0  0  0  0  0  0  0  0  0
   -1.4479   -2.8622   -1.7071 H   0  0  0  0  0  0  0  0  0  0  0  0
   -2.8994   -3.3802   -0.8336 H   0  0  0  0  0  0  0  0  0  0  0  0
    4.6048   -0.6254   -1.3436 H   0  0  0  0  0  0  0  0  0  0  0  0
    4.2442    0.9312   -2.0830 H   0  0  0  0  0  0  0  0  0  0  0  0
    2.9280   -0.1568   -1.6977 H   0  0  0  0  0  0  0  0  0  0  0  0
    2.8775    2.7562   -0.4524 H   0  0  0  0  0  0  0  0  0  0  0  0
    1.7159    1.4671   -0.2335 H   0  0  0  0  0  0  0  0  0  0  0  0
    2.5150    2.1935    1.1767 H   0  0  0  0  0  0  0  0  0  0  0  0
    1.2875   -3.7007   -0.6607 H   0  0  0  0  0  0  0  0  0  0  0  0
   -0.8016   -0.8936    1.8602 H   0  0  0  0  0  0  0  0  0  0  0  0
    3.3546   -2.4031   -0.3911 H   0  0  0  0  0  0  0  0  0  0  0  0
    1.2629    0.4051    2.1257 H   0  0  0  0  0  0  0  0  0  0  0  0
   -1.8199   -0.6958   -1.1672 H   0  0  0  0  0  0  0  0  0  0  0  0
   -6.0085    0.2163    0.0358 H   0  0  0  0  0  0  0  0  0  0  0  0
   -1.7731    1.0670   -0.1815 H   0  0  0  0  0  0  0  0  0  0  0  0
    6.3333    2.9511   -0.0872 H   0  0  0  0  0  0  0  0  0  0  0  0
   -6.4791    2.6236    0.0076 H   0  0  0  0  0  0  0  0  0  0  0  0
   -2.2522    3.4473   -0.2396 H   0  0  0  0  0  0  0  0  0  0  0  0
  1 25  1  0  0  0  0
  2  7  1  0  0  0  0
  2 11  1  0  0  0  0
  3 18  1  0  0  0  0
  3 43  1  0  0  0  0
  4 18  2  0  0  0  0
  5 19  2  0  0  0  0
  6 10  1  0  0  0  0
  6 19  1  0  0  0  0
  6 40  1  0  0  0  0
  7 12  1  0  0  0  0
  7 13  1  0  0  0  0
  7 18  1  0  0  0  0
  8  9  1  0  0  0  0
  8 10  1  0  0  0  0
  8 26  1  0  0  0  0
  8 27  1  0  0  0  0
  9 14  2  0  0  0  0
  9 15  1  0  0  0  0
 10 28  1  0  0  0  0
 10 29  1  0  0  0  0
 11 16  2  0  0  0  0
 11 17  1  0  0  0  0
 12 30  1  0  0  0  0
 12 31  1  0  0  0  0
 12 32  1  0  0  0  0
 13 33  1  0  0  0  0
 13 34  1  0  0  0  0
 13 35  1  0  0  0  0
 14 16  1  0  0  0  0
 14 36  1  0  0  0  0
 15 17  2  0  0  0  0
 15 37  1  0  0  0  0
 16 38  1  0  0  0  0
 17 39  1  0  0  0  0
 19 20  1  0  0  0  0
 20 21  2  0  0  0  0
 20 22  1  0  0  0  0
 21 23  1  0  0  0  0
 21 41  1  0  0  0  0
 22 24  2  0  0  0  0
 22 42  1  0  0  0  0
 23 25  2  0  0  0  0
 23 44  1  0  0  0  0
 24 25  1  0  0  0  0
 24 45  1  0  0  0  0
M  END
