DB01246
 OpenBabel07062211533D

 43 45  0  0  1  0  0  0  0  0999 V2000
    3.4442   -1.3010    1.2833 S   0  0  0  0  0  0  0  0  0  0  0  0
    1.2211   -0.0494   -0.4932 N   0  0  0  0  0  0  0  0  0  0  0  0
   -3.5700    0.8188    0.5348 N   0  0  0  0  0  0  0  0  0  0  0  0
   -1.1524    0.4605    0.0692 C   0  0  2  0  0  0  0  0  0  0  0  0
   -0.0070    0.6162   -0.9467 C   0  0  0  0  0  0  0  0  0  0  0  0
   -2.4814    1.0834   -0.3999 C   0  0  0  0  0  0  0  0  0  0  0  0
   -0.7633    1.0326    1.4371 C   0  0  0  0  0  0  0  0  0  0  0  0
    2.3602    0.7647   -0.2690 C   0  0  0  0  0  0  0  0  0  0  0  0
    1.1935   -1.4624   -0.3780 C   0  0  0  0  0  0  0  0  0  0  0  0
    3.4449    0.2995    0.5007 C   0  0  0  0  0  0  0  0  0  0  0  0
    2.1629   -2.1481    0.3805 C   0  0  0  0  0  0  0  0  0  0  0  0
    2.4792    2.0551   -0.8298 C   0  0  0  0  0  0  0  0  0  0  0  0
    0.2247   -2.2480   -1.0401 C   0  0  0  0  0  0  0  0  0  0  0  0
   -3.8008   -0.6209    0.6618 C   0  0  0  0  0  0  0  0  0  0  0  0
   -4.7947    1.4939    0.1028 C   0  0  0  0  0  0  0  0  0  0  0  0
    4.5754    1.1083    0.7140 C   0  0  0  0  0  0  0  0  0  0  0  0
    2.1356   -3.5502    0.4852 C   0  0  0  0  0  0  0  0  0  0  0  0
    3.6072    2.8528   -0.6188 C   0  0  0  0  0  0  0  0  0  0  0  0
    0.2050   -3.6415   -0.9367 C   0  0  0  0  0  0  0  0  0  0  0  0
    4.6549    2.3802    0.1566 C   0  0  0  0  0  0  0  0  0  0  0  0
    1.1595   -4.2932   -0.1706 C   0  0  0  0  0  0  0  0  0  0  0  0
   -1.3092   -0.6093    0.2159 H   0  0  0  0  0  0  0  0  0  0  0  0
   -0.3007    0.2524   -1.9390 H   0  0  0  0  0  0  0  0  0  0  0  0
    0.0842    1.6946   -1.0844 H   0  0  0  0  0  0  0  0  0  0  0  0
   -2.7263    0.7032   -1.4009 H   0  0  0  0  0  0  0  0  0  0  0  0
   -2.3377    2.1673   -0.5010 H   0  0  0  0  0  0  0  0  0  0  0  0
    0.1314    0.5462    1.8382 H   0  0  0  0  0  0  0  0  0  0  0  0
   -1.5503    0.8874    2.1837 H   0  0  0  0  0  0  0  0  0  0  0  0
   -0.5591    2.1069    1.3693 H   0  0  0  0  0  0  0  0  0  0  0  0
    1.7410    2.4777   -1.5031 H   0  0  0  0  0  0  0  0  0  0  0  0
   -0.5381   -1.8062   -1.6750 H   0  0  0  0  0  0  0  0  0  0  0  0
   -4.7202   -0.8098    1.2297 H   0  0  0  0  0  0  0  0  0  0  0  0
   -3.0134   -1.1162    1.2374 H   0  0  0  0  0  0  0  0  0  0  0  0
   -3.9060   -1.1169   -0.3101 H   0  0  0  0  0  0  0  0  0  0  0  0
   -4.6351    2.5759    0.0357 H   0  0  0  0  0  0  0  0  0  0  0  0
   -5.5971    1.3424    0.8336 H   0  0  0  0  0  0  0  0  0  0  0  0
   -5.1427    1.1348   -0.8724 H   0  0  0  0  0  0  0  0  0  0  0  0
    5.4088    0.7542    1.3175 H   0  0  0  0  0  0  0  0  0  0  0  0
    2.8770   -4.0796    1.0802 H   0  0  0  0  0  0  0  0  0  0  0  0
    3.6686    3.8369   -1.0746 H   0  0  0  0  0  0  0  0  0  0  0  0
   -0.5559   -4.2130   -1.4604 H   0  0  0  0  0  0  0  0  0  0  0  0
    5.5341    2.9952    0.3225 H   0  0  0  0  0  0  0  0  0  0  0  0
    1.1480   -5.3755   -0.0861 H   0  0  0  0  0  0  0  0  0  0  0  0
  1 10  1  0  0  0  0
  1 11  1  0  0  0  0
  2  5  1  0  0  0  0
  2  8  1  0  0  0  0
  2  9  1  0  0  0  0
  3  6  1  0  0  0  0
  3 14  1  0  0  0  0
  3 15  1  0  0  0  0
  4  5  1  0  0  0  0
  4  6  1  0  0  0  0
  4  7  1  0  0  0  0
  4 22  1  1  0  0  0
  5 23  1  0  0  0  0
  5 24  1  0  0  0  0
  6 25  1  0  0  0  0
  6 26  1  0  0  0  0
  7 27  1  0  0  0  0
  7 28  1  0  0  0  0
  7 29  1  0  0  0  0
  8 10  2  0  0  0  0
  8 12  1  0  0  0  0
  9 11  2  0  0  0  0
  9 13  1  0  0  0  0
 10 16  1  0  0  0  0
 11 17  1  0  0  0  0
 12 18  2  0  0  0  0
 12 30  1  0  0  0  0
 13 19  2  0  0  0  0
 13 31  1  0  0  0  0
 14 32  1  0  0  0  0
 14 33  1  0  0  0  0
 14 34  1  0  0  0  0
 15 35  1  0  0  0  0
 15 36  1  0  0  0  0
 15 37  1  0  0  0  0
 16 20  2  0  0  0  0
 16 38  1  0  0  0  0
 17 21  2  0  0  0  0
 17 39  1  0  0  0  0
 18 20  1  0  0  0  0
 18 40  1  0  0  0  0
 19 21  1  0  0  0  0
 19 41  1  0  0  0  0
 20 42  1  0  0  0  0
 21 43  1  0  0  0  0
M  END
