DB01628
 OpenBabel07062211533D

 39 41  0  0  0  0  0  0  0  0999 V2000
   -5.0631    3.8283   -0.0132 Cl  0  0  0  0  0  0  0  0  0  0  0  0
    4.0734    1.9182   -0.0190 S   0  0  0  0  0  0  0  0  0  0  0  0
    4.4650    2.5097   -1.2904 O   0  0  0  0  0  0  0  0  0  0  0  0
    4.5005    2.5371    1.2283 O   0  0  0  0  0  0  0  0  0  0  0  0
   -3.8755    0.0266    0.0483 N   0  0  0  0  0  0  0  0  0  0  0  0
   -0.7780   -2.8428    1.3428 N   0  0  0  0  0  0  0  0  0  0  0  0
   -0.4456    1.5277    0.0073 C   0  0  0  0  0  0  0  0  0  0  0  0
   -1.8872    1.4039    0.0158 C   0  0  0  0  0  0  0  0  0  0  0  0
    2.3337    1.7679   -0.0091 C   0  0  0  0  0  0  0  0  0  0  0  0
   -2.5320    0.1769    0.0400 C   0  0  0  0  0  0  0  0  0  0  0  0
    0.2543    1.6087    1.2110 C   0  0  0  0  0  0  0  0  0  0  0  0
    0.2439    1.5670   -1.2045 C   0  0  0  0  0  0  0  0  0  0  0  0
    1.6440    1.7289    1.2028 C   0  0  0  0  0  0  0  0  0  0  0  0
    1.6337    1.6870   -1.2127 C   0  0  0  0  0  0  0  0  0  0  0  0
   -1.8105   -1.0782    0.0588 C   0  0  0  0  0  0  0  0  0  0  0  0
   -2.6749    2.5506   -0.0011 C   0  0  0  0  0  0  0  0  0  0  0  0
    4.6614    0.2399    0.0074 C   0  0  0  0  0  0  0  0  0  0  0  0
   -1.4604   -1.7170   -1.1232 C   0  0  0  0  0  0  0  0  0  0  0  0
   -4.0607    2.4368    0.0068 C   0  0  0  0  0  0  0  0  0  0  0  0
   -1.4511   -1.6736    1.2548 C   0  0  0  0  0  0  0  0  0  0  0  0
   -4.6068    1.1636    0.0315 C   0  0  0  0  0  0  0  0  0  0  0  0
   -0.7674   -2.9215   -1.0735 C   0  0  0  0  0  0  0  0  0  0  0  0
   -0.4528   -3.4378    0.1731 C   0  0  0  0  0  0  0  0  0  0  0  0
    0.2897   -4.7291    0.2640 C   0  0  0  0  0  0  0  0  0  0  0  0
   -0.2676    1.5782    2.1646 H   0  0  0  0  0  0  0  0  0  0  0  0
   -0.2864    1.5036   -2.1519 H   0  0  0  0  0  0  0  0  0  0  0  0
    2.1698    1.7837    2.1519 H   0  0  0  0  0  0  0  0  0  0  0  0
    2.1504    1.7082   -2.1681 H   0  0  0  0  0  0  0  0  0  0  0  0
   -2.2119    3.5353   -0.0202 H   0  0  0  0  0  0  0  0  0  0  0  0
    4.2925   -0.2795   -0.8790 H   0  0  0  0  0  0  0  0  0  0  0  0
    5.7532    0.2631   -0.0022 H   0  0  0  0  0  0  0  0  0  0  0  0
    4.3072   -0.2466    0.9182 H   0  0  0  0  0  0  0  0  0  0  0  0
   -1.7194   -1.2915   -2.0894 H   0  0  0  0  0  0  0  0  0  0  0  0
   -1.6966   -1.2234    2.2123 H   0  0  0  0  0  0  0  0  0  0  0  0
   -5.6814    1.0078    0.0388 H   0  0  0  0  0  0  0  0  0  0  0  0
   -0.4872   -3.4319   -1.9888 H   0  0  0  0  0  0  0  0  0  0  0  0
    0.4661   -5.0090    1.3077 H   0  0  0  0  0  0  0  0  0  0  0  0
   -0.2845   -5.5324   -0.2084 H   0  0  0  0  0  0  0  0  0  0  0  0
    1.2621   -4.6447   -0.2315 H   0  0  0  0  0  0  0  0  0  0  0  0
  1 19  1  0  0  0  0
  2  3  2  0  0  0  0
  2  4  2  0  0  0  0
  2  9  1  0  0  0  0
  2 17  1  0  0  0  0
  5 10  2  0  0  0  0
  5 21  1  0  0  0  0
  6 20  2  0  0  0  0
  6 23  1  0  0  0  0
  7  8  1  0  0  0  0
  7 11  2  0  0  0  0
  7 12  1  0  0  0  0
  8 10  1  0  0  0  0
  8 16  2  0  0  0  0
  9 13  2  0  0  0  0
  9 14  1  0  0  0  0
 10 15  1  0  0  0  0
 11 13  1  0  0  0  0
 11 25  1  0  0  0  0
 12 14  2  0  0  0  0
 12 26  1  0  0  0  0
 13 27  1  0  0  0  0
 14 28  1  0  0  0  0
 15 18  2  0  0  0  0
 15 20  1  0  0  0  0
 16 19  1  0  0  0  0
 16 29  1  0  0  0  0
 17 30  1  0  0  0  0
 17 31  1  0  0  0  0
 17 32  1  0  0  0  0
 18 22  1  0  0  0  0
 18 33  1  0  0  0  0
 19 21  2  0  0  0  0
 20 34  1  0  0  0  0
 21 35  1  0  0  0  0
 22 23  2  0  0  0  0
 22 36  1  0  0  0  0
 23 24  1  0  0  0  0
 24 37  1  0  0  0  0
 24 38  1  0  0  0  0
 24 39  1  0  0  0  0
M  END
