DB01208
 OpenBabel07062211533D

 50 53  0  0  1  0  0  0  0  0999 V2000
   -0.3557   -1.7727    1.0056 F   0  0  0  0  0  0  0  0  0  0  0  0
    1.5352    2.4044   -0.0899 F   0  0  0  0  0  0  0  0  0  0  0  0
   -3.4752    3.0973   -0.5950 O   0  0  0  0  0  0  0  0  0  0  0  0
   -5.8973    2.4296   -1.2160 O   0  0  0  0  0  0  0  0  0  0  0  0
   -6.8151    1.0103    0.3249 O   0  0  0  0  0  0  0  0  0  0  0  0
   -3.0074   -0.7853    0.5555 N   0  0  0  0  0  0  0  0  0  0  0  0
    1.8513   -0.2173    0.6868 N   0  0  0  0  0  0  0  0  0  0  0  0
    4.4284   -0.0853   -0.4966 N   0  0  0  0  0  0  0  0  0  0  0  0
   -0.8943    3.5182   -0.5627 N   0  0  0  0  0  0  0  0  0  0  0  0
   -2.9596   -2.2043    0.9703 C   0  0  0  0  0  0  0  0  0  0  0  0
   -2.1253   -3.1911    0.2233 C   0  0  0  0  0  0  0  0  0  0  0  0
   -3.6226   -3.2630    0.1531 C   0  0  0  0  0  0  0  0  0  0  0  0
   -1.8339    0.0061    0.3983 C   0  0  0  0  0  0  0  0  0  0  0  0
    3.3481   -0.8496   -1.1396 C   0  0  2  0  0  0  0  0  0  0  0  0
    3.9056    1.0484    0.2820 C   0  0  1  0  0  0  0  0  0  0  0  0
    2.3386   -1.3599   -0.0937 C   0  0  0  0  0  0  0  0  0  0  0  0
    2.9137    0.5484    1.3429 C   0  0  0  0  0  0  0  0  0  0  0  0
    0.5849    0.3078    0.4590 C   0  0  0  0  0  0  0  0  0  0  0  0
   -4.2463   -0.2227    0.3166 C   0  0  0  0  0  0  0  0  0  0  0  0
   -1.9529    1.3553    0.0002 C   0  0  0  0  0  0  0  0  0  0  0  0
   -0.5436   -0.5002    0.6241 C   0  0  0  0  0  0  0  0  0  0  0  0
   -0.8217    2.1640   -0.1647 C   0  0  0  0  0  0  0  0  0  0  0  0
   -4.4701    1.0414   -0.0631 C   0  0  1  0  0  0  0  0  0  0  0  0
    0.4459    1.6359    0.0658 C   0  0  0  0  0  0  0  0  0  0  0  0
   -3.2988    1.9354   -0.2499 C   0  0  0  0  0  0  0  0  0  0  0  0
    3.9565   -2.0174   -1.9127 C   0  0  0  0  0  0  0  0  0  0  0  0
    5.0711    1.7832    0.9397 C   0  0  0  0  0  0  0  0  0  0  0  0
   -5.8557    1.4663   -0.2714 C   0  0  0  0  0  0  0  0  0  0  0  0
   -3.0044   -2.3119    2.0494 H   0  0  0  0  0  0  0  0  0  0  0  0
   -1.6178   -3.9637    0.7884 H   0  0  0  0  0  0  0  0  0  0  0  0
   -1.6254   -2.9066   -0.6952 H   0  0  0  0  0  0  0  0  0  0  0  0
   -4.0884   -2.9943   -0.7871 H   0  0  0  0  0  0  0  0  0  0  0  0
   -4.1139   -4.0730    0.6782 H   0  0  0  0  0  0  0  0  0  0  0  0
    2.8344   -0.1964   -1.8567 H   0  0  0  0  0  0  0  0  0  0  0  0
    3.4532    1.7405   -0.4297 H   0  0  0  0  0  0  0  0  0  0  0  0
    1.5229   -1.8928   -0.5968 H   0  0  0  0  0  0  0  0  0  0  0  0
    2.8151   -2.0784    0.5858 H   0  0  0  0  0  0  0  0  0  0  0  0
    3.4244   -0.1071    2.0613 H   0  0  0  0  0  0  0  0  0  0  0  0
    2.5095    1.3812    1.9315 H   0  0  0  0  0  0  0  0  0  0  0  0
   -5.0684   -0.9148    0.4732 H   0  0  0  0  0  0  0  0  0  0  0  0
    4.9557   -0.7032    0.1210 H   0  0  0  0  0  0  0  0  0  0  0  0
    4.6636   -1.6602   -2.6696 H   0  0  0  0  0  0  0  0  0  0  0  0
    4.4903   -2.7072   -1.2493 H   0  0  0  0  0  0  0  0  0  0  0  0
    3.1755   -2.5854   -2.4297 H   0  0  0  0  0  0  0  0  0  0  0  0
    4.7111    2.6572    1.4931 H   0  0  0  0  0  0  0  0  0  0  0  0
    5.6114    1.1385    1.6421 H   0  0  0  0  0  0  0  0  0  0  0  0
    5.7862    2.1368    0.1887 H   0  0  0  0  0  0  0  0  0  0  0  0
   -1.7838    3.9608   -0.7429 H   0  0  0  0  0  0  0  0  0  0  0  0
   -0.0428    4.0555   -0.6642 H   0  0  0  0  0  0  0  0  0  0  0  0
   -6.8121    2.7414   -1.3844 H   0  0  0  0  0  0  0  0  0  0  0  0
  1 21  1  0  0  0  0
  2 24  1  0  0  0  0
  3 25  2  0  0  0  0
  4 28  1  0  0  0  0
  4 50  1  0  0  0  0
  5 28  2  0  0  0  0
  6 10  1  0  0  0  0
  6 13  1  0  0  0  0
  6 19  2  0  0  0  0
  7 16  1  0  0  0  0
  7 17  1  0  0  0  0
  7 18  1  0  0  0  0
  8 14  1  0  0  0  0
  8 15  1  0  0  0  0
  8 41  1  0  0  0  0
  9 22  1  0  0  0  0
  9 48  1  0  0  0  0
  9 49  1  0  0  0  0
 10 11  1  0  0  0  0
 10 12  1  0  0  0  0
 10 29  1  0  0  0  0
 11 12  1  0  0  0  0
 11 30  1  0  0  0  0
 11 31  1  0  0  0  0
 12 32  1  0  0  0  0
 12 33  1  0  0  0  0
 13 20  2  0  0  0  0
 13 21  1  0  0  0  0
 14 16  1  0  0  0  0
 14 26  1  0  0  0  0
 14 34  1  6  0  0  0
 15 17  1  0  0  0  0
 15 27  1  0  0  0  0
 15 35  1  6  0  0  0
 16 36  1  0  0  0  0
 16 37  1  0  0  0  0
 17 38  1  0  0  0  0
 17 39  1  0  0  0  0
 18 21  2  0  0  0  0
 18 24  1  0  0  0  0
 19 23  1  0  0  0  0
 19 40  1  0  0  0  0
 20 22  1  0  0  0  0
 20 25  1  0  0  0  0
 22 24  2  0  0  0  0
 23 25  1  0  0  0  0
 23 28  1  6  0  0  0
 26 42  1  0  0  0  0
 26 43  1  0  0  0  0
 26 44  1  0  0  0  0
 27 45  1  0  0  0  0
 27 46  1  0  0  0  0
 27 47  1  0  0  0  0
M  END
