DB01063
 OpenBabel07062211533D

 58 61  0  0  0  0  0  0  0  0999 V2000
   -3.4027    1.2663    2.3989 S   0  0  0  0  0  0  0  0  0  0  0  0
    6.8484   -0.2492    1.0378 O   0  0  0  0  0  0  0  0  0  0  0  0
    1.5562    4.8100   -0.4956 O   0  0  0  0  0  0  0  0  0  0  0  0
    0.5973   -1.4240    0.0594 N   0  0  0  0  0  0  0  0  0  0  0  0
    3.4883   -1.4281    0.0901 N   0  0  0  0  0  0  0  0  0  0  0  0
   -2.4788    0.2748   -0.3992 N   0  0  0  0  0  0  0  0  0  0  0  0
    1.3705   -2.0607   -1.0140 C   0  0  0  0  0  0  0  0  0  0  0  0
    1.3462   -1.4601    1.3214 C   0  0  0  0  0  0  0  0  0  0  0  0
    2.7395   -1.3901   -1.1720 C   0  0  0  0  0  0  0  0  0  0  0  0
    2.7157   -0.7906    1.1633 C   0  0  0  0  0  0  0  0  0  0  0  0
   -0.7068   -2.0663    0.2111 C   0  0  0  0  0  0  0  0  0  0  0  0
   -1.5662   -1.9220   -1.0488 C   0  0  0  0  0  0  0  0  0  0  0  0
    4.7933   -0.7877   -0.0611 C   0  0  0  0  0  0  0  0  0  0  0  0
   -1.8277   -0.4788   -1.4785 C   0  0  0  0  0  0  0  0  0  0  0  0
    5.5836   -0.8673    1.2352 C   0  0  0  0  0  0  0  0  0  0  0  0
   -1.7984    1.4115    0.1060 C   0  0  0  0  0  0  0  0  0  0  0  0
   -3.7670   -0.1531    0.0105 C   0  0  0  0  0  0  0  0  0  0  0  0
   -2.1426    1.9689    1.3533 C   0  0  0  0  0  0  0  0  0  0  0  0
   -4.3064    0.2493    1.2484 C   0  0  0  0  0  0  0  0  0  0  0  0
   -0.7765    2.0571   -0.6241 C   0  0  0  0  0  0  0  0  0  0  0  0
   -4.5806   -0.9662   -0.8088 C   0  0  0  0  0  0  0  0  0  0  0  0
   -1.4693    3.1009    1.8464 C   0  0  0  0  0  0  0  0  0  0  0  0
   -0.1139    3.1846   -0.1315 C   0  0  0  0  0  0  0  0  0  0  0  0
   -5.5876   -0.1721    1.6466 C   0  0  0  0  0  0  0  0  0  0  0  0
   -0.4585    3.7051    1.1065 C   0  0  0  0  0  0  0  0  0  0  0  0
   -5.8553   -1.3779   -0.4105 C   0  0  0  0  0  0  0  0  0  0  0  0
   -6.3579   -0.9833    0.8200 C   0  0  0  0  0  0  0  0  0  0  0  0
    0.9432    3.8075   -0.9128 C   0  0  0  0  0  0  0  0  0  0  0  0
    1.3276    3.2407   -2.2752 C   0  0  0  0  0  0  0  0  0  0  0  0
    1.5044   -3.1336   -0.8205 H   0  0  0  0  0  0  0  0  0  0  0  0
    0.8734   -1.9600   -1.9833 H   0  0  0  0  0  0  0  0  0  0  0  0
    0.7881   -0.9218    2.0976 H   0  0  0  0  0  0  0  0  0  0  0  0
    1.4770   -2.4937    1.6696 H   0  0  0  0  0  0  0  0  0  0  0  0
    3.2980   -1.9246   -1.9501 H   0  0  0  0  0  0  0  0  0  0  0  0
    2.6056   -0.3556   -1.5174 H   0  0  0  0  0  0  0  0  0  0  0  0
    2.5855    0.2835    0.9738 H   0  0  0  0  0  0  0  0  0  0  0  0
    3.2016   -0.9036    2.1365 H   0  0  0  0  0  0  0  0  0  0  0  0
   -0.5907   -3.1340    0.4411 H   0  0  0  0  0  0  0  0  0  0  0  0
   -1.2424   -1.6265    1.0610 H   0  0  0  0  0  0  0  0  0  0  0  0
   -1.1283   -2.4696   -1.8912 H   0  0  0  0  0  0  0  0  0  0  0  0
   -2.5001   -2.4590   -0.8552 H   0  0  0  0  0  0  0  0  0  0  0  0
    4.6981    0.2617   -0.3715 H   0  0  0  0  0  0  0  0  0  0  0  0
    5.3697   -1.2863   -0.8510 H   0  0  0  0  0  0  0  0  0  0  0  0
   -0.8559   -0.0986   -1.7932 H   0  0  0  0  0  0  0  0  0  0  0  0
   -2.4309   -0.4447   -2.3937 H   0  0  0  0  0  0  0  0  0  0  0  0
    5.7479   -1.9067    1.5384 H   0  0  0  0  0  0  0  0  0  0  0  0
    5.1176   -0.3207    2.0576 H   0  0  0  0  0  0  0  0  0  0  0  0
   -0.5329    1.7300   -1.6262 H   0  0  0  0  0  0  0  0  0  0  0  0
   -4.2636   -1.2868   -1.7973 H   0  0  0  0  0  0  0  0  0  0  0  0
   -1.7266    3.5244    2.8153 H   0  0  0  0  0  0  0  0  0  0  0  0
   -6.0001    0.1288    2.6075 H   0  0  0  0  0  0  0  0  0  0  0  0
    7.3398   -0.3288    1.8732 H   0  0  0  0  0  0  0  0  0  0  0  0
    0.0408    4.5781    1.5173 H   0  0  0  0  0  0  0  0  0  0  0  0
   -6.4533   -2.0019   -1.0682 H   0  0  0  0  0  0  0  0  0  0  0  0
   -7.3472   -1.3009    1.1346 H   0  0  0  0  0  0  0  0  0  0  0  0
    0.4855    3.3151   -2.9679 H   0  0  0  0  0  0  0  0  0  0  0  0
    1.6710    2.2077   -2.1742 H   0  0  0  0  0  0  0  0  0  0  0  0
    2.1546    3.8292   -2.6854 H   0  0  0  0  0  0  0  0  0  0  0  0
  1 18  1  0  0  0  0
  1 19  1  0  0  0  0
  2 15  1  0  0  0  0
  2 52  1  0  0  0  0
  3 28  2  0  0  0  0
  4  7  1  0  0  0  0
  4  8  1  0  0  0  0
  4 11  1  0  0  0  0
  5  9  1  0  0  0  0
  5 10  1  0  0  0  0
  5 13  1  0  0  0  0
  6 14  1  0  0  0  0
  6 16  1  0  0  0  0
  6 17  1  0  0  0  0
  7  9  1  0  0  0  0
  7 30  1  0  0  0  0
  7 31  1  0  0  0  0
  8 10  1  0  0  0  0
  8 32  1  0  0  0  0
  8 33  1  0  0  0  0
  9 34  1  0  0  0  0
  9 35  1  0  0  0  0
 10 36  1  0  0  0  0
 10 37  1  0  0  0  0
 11 12  1  0  0  0  0
 11 38  1  0  0  0  0
 11 39  1  0  0  0  0
 12 14  1  0  0  0  0
 12 40  1  0  0  0  0
 12 41  1  0  0  0  0
 13 15  1  0  0  0  0
 13 42  1  0  0  0  0
 13 43  1  0  0  0  0
 14 44  1  0  0  0  0
 14 45  1  0  0  0  0
 15 46  1  0  0  0  0
 15 47  1  0  0  0  0
 16 18  2  0  0  0  0
 16 20  1  0  0  0  0
 17 19  2  0  0  0  0
 17 21  1  0  0  0  0
 18 22  1  0  0  0  0
 19 24  1  0  0  0  0
 20 23  2  0  0  0  0
 20 48  1  0  0  0  0
 21 26  2  0  0  0  0
 21 49  1  0  0  0  0
 22 25  2  0  0  0  0
 22 50  1  0  0  0  0
 23 25  1  0  0  0  0
 23 28  1  0  0  0  0
 24 27  2  0  0  0  0
 24 51  1  0  0  0  0
 25 53  1  0  0  0  0
 26 27  1  0  0  0  0
 26 54  1  0  0  0  0
 27 55  1  0  0  0  0
 28 29  1  0  0  0  0
 29 56  1  0  0  0  0
 29 57  1  0  0  0  0
 29 58  1  0  0  0  0
M  END
