DB01380
 OpenBabel07062211533D

 59 62  0  0  1  0  0  0  0  0999 V2000
   -2.5516   -1.0039    1.8228 O   0  0  0  0  0  0  0  0  0  0  0  0
    0.6048    2.3548   -0.6982 O   0  0  0  0  0  0  0  0  0  0  0  0
   -4.4713   -1.7303   -0.7095 O   0  0  0  0  0  0  0  0  0  0  0  0
   -5.5262    0.6985    0.0575 O   0  0  0  0  0  0  0  0  0  0  0  0
    6.7834    1.6625    1.5642 O   0  0  0  0  0  0  0  0  0  0  0  0
   -5.3061    2.9926    0.2194 O   0  0  0  0  0  0  0  0  0  0  0  0
   -0.0711   -1.5052    0.3581 C   0  0  2  0  0  0  0  0  0  0  0  0
   -1.1977   -0.5892   -0.1787 C   0  0  1  0  0  0  0  0  0  0  0  0
    1.3181   -1.1227   -0.1723 C   0  0  1  0  0  0  0  0  0  0  0  0
    1.6436    0.3427    0.2460 C   0  0  1  0  0  0  0  0  0  0  0  0
   -2.4263   -1.3056    0.4359 C   0  0  1  0  0  0  0  0  0  0  0  0
    3.0695    0.8167   -0.2228 C   0  0  2  0  0  0  0  0  0  0  0  0
   -0.5904   -2.9131    0.0752 C   0  0  0  0  0  0  0  0  0  0  0  0
   -0.9209    0.8318    0.3218 C   0  0  0  0  0  0  0  0  0  0  0  0
   -2.1169   -2.8075    0.2616 C   0  0  0  0  0  0  0  0  0  0  0  0
    2.3962   -2.0732    0.3631 C   0  0  0  0  0  0  0  0  0  0  0  0
    0.4662    1.2731   -0.1300 C   0  0  0  0  0  0  0  0  0  0  0  0
   -1.2926   -0.5736   -1.7298 C   0  0  0  0  0  0  0  0  0  0  0  0
    4.1101   -0.2424    0.1779 C   0  0  0  0  0  0  0  0  0  0  0  0
    3.7763   -1.6797   -0.1448 C   0  0  0  0  0  0  0  0  0  0  0  0
    3.4008    2.1649    0.4838 C   0  0  0  0  0  0  0  0  0  0  0  0
   -3.7454   -0.9075   -0.1535 C   0  0  0  0  0  0  0  0  0  0  0  0
    3.1529    0.9982   -1.7555 C   0  0  0  0  0  0  0  0  0  0  0  0
    4.8728    2.5423    0.4217 C   0  0  0  0  0  0  0  0  0  0  0  0
    5.2862    0.0397    0.7634 C   0  0  0  0  0  0  0  0  0  0  0  0
    5.7206    1.4365    0.9893 C   0  0  0  0  0  0  0  0  0  0  0  0
   -4.1243    0.5526   -0.0242 C   0  0  0  0  0  0  0  0  0  0  0  0
   -5.9948    1.9822    0.1779 C   0  0  0  0  0  0  0  0  0  0  0  0
   -7.4917    1.9833    0.2530 C   0  0  0  0  0  0  0  0  0  0  0  0
   -0.0285   -1.4059    1.4552 H   0  0  0  0  0  0  0  0  0  0  0  0
    1.3156   -1.2053   -1.2647 H   0  0  0  0  0  0  0  0  0  0  0  0
    1.6534    0.3630    1.3481 H   0  0  0  0  0  0  0  0  0  0  0  0
   -0.1597   -3.6513    0.7598 H   0  0  0  0  0  0  0  0  0  0  0  0
   -0.3512   -3.2319   -0.9455 H   0  0  0  0  0  0  0  0  0  0  0  0
   -0.9458    0.9061    1.4144 H   0  0  0  0  0  0  0  0  0  0  0  0
   -1.6417    1.5511   -0.0766 H   0  0  0  0  0  0  0  0  0  0  0  0
   -2.6013   -3.2526   -0.6143 H   0  0  0  0  0  0  0  0  0  0  0  0
   -2.4256   -3.3883    1.1383 H   0  0  0  0  0  0  0  0  0  0  0  0
    2.1867   -3.1016    0.0468 H   0  0  0  0  0  0  0  0  0  0  0  0
    2.3912   -2.0708    1.4610 H   0  0  0  0  0  0  0  0  0  0  0  0
   -0.3751   -0.2082   -2.2009 H   0  0  0  0  0  0  0  0  0  0  0  0
   -1.4937   -1.5652   -2.1470 H   0  0  0  0  0  0  0  0  0  0  0  0
   -2.0930    0.0882   -2.0748 H   0  0  0  0  0  0  0  0  0  0  0  0
    3.8218   -1.8206   -1.2316 H   0  0  0  0  0  0  0  0  0  0  0  0
    4.5161   -2.3671    0.2839 H   0  0  0  0  0  0  0  0  0  0  0  0
    3.1110    2.1032    1.5423 H   0  0  0  0  0  0  0  0  0  0  0  0
    2.8217    2.9889    0.0539 H   0  0  0  0  0  0  0  0  0  0  0  0
    4.1835    1.1816   -2.0820 H   0  0  0  0  0  0  0  0  0  0  0  0
    2.8030    0.1143   -2.2978 H   0  0  0  0  0  0  0  0  0  0  0  0
    2.5577    1.8482   -2.1016 H   0  0  0  0  0  0  0  0  0  0  0  0
   -3.2269   -1.5915    2.2033 H   0  0  0  0  0  0  0  0  0  0  0  0
    5.0366    3.4466    1.0183 H   0  0  0  0  0  0  0  0  0  0  0  0
    5.1985    2.7466   -0.6030 H   0  0  0  0  0  0  0  0  0  0  0  0
    5.9892   -0.7385    1.0416 H   0  0  0  0  0  0  0  0  0  0  0  0
   -3.7535    1.0872   -0.9033 H   0  0  0  0  0  0  0  0  0  0  0  0
   -3.6880    0.9727    0.8863 H   0  0  0  0  0  0  0  0  0  0  0  0
   -7.8185    1.4169    1.1285 H   0  0  0  0  0  0  0  0  0  0  0  0
   -7.9081    1.5535   -0.6615 H   0  0  0  0  0  0  0  0  0  0  0  0
   -7.8497    3.0122    0.3494 H   0  0  0  0  0  0  0  0  0  0  0  0
  1 51  1  0  0  0  0
  2 17  2  0  0  0  0
  3 22  2  0  0  0  0
  4 27  1  0  0  0  0
  4 28  1  0  0  0  0
  5 26  2  0  0  0  0
  6 28  2  0  0  0  0
  7  8  1  6  0  0  0
  7 13  1  0  0  0  0
  7 30  1  0  0  0  0
  8 11  1  1  0  0  0
  8 14  1  0  0  0  0
  8 18  1  0  0  0  0
  9  7  1  1  0  0  0
  9 16  1  0  0  0  0
  9 31  1  0  0  0  0
 10  9  1  6  0  0  0
 10 17  1  0  0  0  0
 10 32  1  0  0  0  0
 11  1  1  1  0  0  0
 11 15  1  0  0  0  0
 11 22  1  0  0  0  0
 12 10  1  1  0  0  0
 12 19  1  0  0  0  0
 12 21  1  0  0  0  0
 12 23  1  0  0  0  0
 13 15  1  0  0  0  0
 13 33  1  0  0  0  0
 13 34  1  0  0  0  0
 14 17  1  0  0  0  0
 14 35  1  0  0  0  0
 14 36  1  0  0  0  0
 15 37  1  0  0  0  0
 15 38  1  0  0  0  0
 16 20  1  0  0  0  0
 16 39  1  0  0  0  0
 16 40  1  0  0  0  0
 18 41  1  0  0  0  0
 18 42  1  0  0  0  0
 18 43  1  0  0  0  0
 19 20  1  0  0  0  0
 19 25  2  0  0  0  0
 20 44  1  0  0  0  0
 20 45  1  0  0  0  0
 21 24  1  0  0  0  0
 21 46  1  0  0  0  0
 21 47  1  0  0  0  0
 22 27  1  0  0  0  0
 23 48  1  0  0  0  0
 23 49  1  0  0  0  0
 23 50  1  0  0  0  0
 24 26  1  0  0  0  0
 24 52  1  0  0  0  0
 24 53  1  0  0  0  0
 25 26  1  0  0  0  0
 25 54  1  0  0  0  0
 27 55  1  0  0  0  0
 27 56  1  0  0  0  0
 28 29  1  0  0  0  0
 29 57  1  0  0  0  0
 29 58  1  0  0  0  0
 29 59  1  0  0  0  0
M  END
