DB01182
 OpenBabel07062211533D

 52 53  0  0  1  0  0  0  0  0999 V2000
   -3.1304    0.4972    0.5432 O   0  0  0  0  0  0  0  0  0  0  0  0
   -4.8335   -1.6375    1.0663 O   0  0  0  0  0  0  0  0  0  0  0  0
   -0.7592    0.5385    1.7727 O   0  0  0  0  0  0  0  0  0  0  0  0
   -1.5351   -2.5118   -0.3710 N   0  0  0  0  0  0  0  0  0  0  0  0
   -3.8535   -1.7339    0.0287 C   0  0  2  0  0  0  0  0  0  0  0  0
   -2.6067   -2.4052    0.6096 C   0  0  0  0  0  0  0  0  0  0  0  0
   -3.5868   -0.3339   -0.5196 C   0  0  0  0  0  0  0  0  0  0  0  0
   -0.3427   -3.1019    0.2222 C   0  0  0  0  0  0  0  0  0  0  0  0
    0.9786    1.7112    0.5833 C   0  0  0  0  0  0  0  0  0  0  0  0
    1.8433    0.4495    0.6303 C   0  0  0  0  0  0  0  0  0  0  0  0
    0.7738   -3.1963   -0.8146 C   0  0  0  0  0  0  0  0  0  0  0  0
   -1.5420    2.2984    0.4236 C   0  0  0  0  0  0  0  0  0  0  0  0
   -2.8270    1.7936    0.2236 C   0  0  0  0  0  0  0  0  0  0  0  0
   -0.4876    1.4606    0.9780 C   0  0  0  0  0  0  0  0  0  0  0  0
    3.2716    0.7382    0.2464 C   0  0  0  0  0  0  0  0  0  0  0  0
   -1.2529    3.6216    0.0902 C   0  0  0  0  0  0  0  0  0  0  0  0
   -3.8226    2.6123   -0.3097 C   0  0  0  0  0  0  0  0  0  0  0  0
    2.0247   -3.8296   -0.2253 C   0  0  0  0  0  0  0  0  0  0  0  0
   -2.2485    4.4399   -0.4434 C   0  0  0  0  0  0  0  0  0  0  0  0
    3.6671    0.6474   -1.0882 C   0  0  0  0  0  0  0  0  0  0  0  0
    4.1983    1.0970    1.2254 C   0  0  0  0  0  0  0  0  0  0  0  0
   -3.5333    3.9353   -0.6434 C   0  0  0  0  0  0  0  0  0  0  0  0
    4.9891    0.9149   -1.4439 C   0  0  0  0  0  0  0  0  0  0  0  0
    5.5203    1.3647    0.8696 C   0  0  0  0  0  0  0  0  0  0  0  0
    5.9156    1.2736   -0.4650 C   0  0  0  0  0  0  0  0  0  0  0  0
   -4.2720   -2.3638   -0.7654 H   0  0  0  0  0  0  0  0  0  0  0  0
   -2.2706   -1.8430    1.4901 H   0  0  0  0  0  0  0  0  0  0  0  0
   -2.8865   -3.4004    0.9795 H   0  0  0  0  0  0  0  0  0  0  0  0
   -4.5269    0.0626   -0.9199 H   0  0  0  0  0  0  0  0  0  0  0  0
   -2.8462   -0.3546   -1.3275 H   0  0  0  0  0  0  0  0  0  0  0  0
   -1.8461   -3.0736   -1.1628 H   0  0  0  0  0  0  0  0  0  0  0  0
    0.0020   -2.4878    1.0630 H   0  0  0  0  0  0  0  0  0  0  0  0
   -0.5677   -4.1038    0.6079 H   0  0  0  0  0  0  0  0  0  0  0  0
    1.0071    2.1182   -0.4347 H   0  0  0  0  0  0  0  0  0  0  0  0
    1.3779    2.4713    1.2657 H   0  0  0  0  0  0  0  0  0  0  0  0
    1.4241   -0.3086   -0.0390 H   0  0  0  0  0  0  0  0  0  0  0  0
    1.8161    0.0027    1.6325 H   0  0  0  0  0  0  0  0  0  0  0  0
    0.4414   -3.8036   -1.6657 H   0  0  0  0  0  0  0  0  0  0  0  0
    1.0183   -2.2046   -1.2100 H   0  0  0  0  0  0  0  0  0  0  0  0
   -0.2671    4.0496    0.2487 H   0  0  0  0  0  0  0  0  0  0  0  0
   -5.6321   -1.2401    0.6787 H   0  0  0  0  0  0  0  0  0  0  0  0
   -4.8346    2.2453   -0.4554 H   0  0  0  0  0  0  0  0  0  0  0  0
    2.8097   -3.8955   -0.9852 H   0  0  0  0  0  0  0  0  0  0  0  0
    1.8193   -4.8409    0.1398 H   0  0  0  0  0  0  0  0  0  0  0  0
    2.4092   -3.2333    0.6085 H   0  0  0  0  0  0  0  0  0  0  0  0
    2.9539    0.3700   -1.8599 H   0  0  0  0  0  0  0  0  0  0  0  0
    3.9017    1.1731    2.2681 H   0  0  0  0  0  0  0  0  0  0  0  0
   -2.0249    5.4717   -0.6989 H   0  0  0  0  0  0  0  0  0  0  0  0
   -4.3097    4.5743   -1.0539 H   0  0  0  0  0  0  0  0  0  0  0  0
    5.2968    0.8444   -2.4830 H   0  0  0  0  0  0  0  0  0  0  0  0
    6.2418    1.6446    1.6317 H   0  0  0  0  0  0  0  0  0  0  0  0
    6.9449    1.4822   -0.7419 H   0  0  0  0  0  0  0  0  0  0  0  0
  1  7  1  0  0  0  0
  1 13  1  0  0  0  0
  2  5  1  0  0  0  0
  2 41  1  0  0  0  0
  3 14  2  0  0  0  0
  4  6  1  0  0  0  0
  4  8  1  0  0  0  0
  4 31  1  0  0  0  0
  5  6  1  0  0  0  0
  5  7  1  0  0  0  0
  5 26  1  6  0  0  0
  6 27  1  0  0  0  0
  6 28  1  0  0  0  0
  7 29  1  0  0  0  0
  7 30  1  0  0  0  0
  8 11  1  0  0  0  0
  8 32  1  0  0  0  0
  8 33  1  0  0  0  0
  9 10  1  0  0  0  0
  9 14  1  0  0  0  0
  9 34  1  0  0  0  0
  9 35  1  0  0  0  0
 10 15  1  0  0  0  0
 10 36  1  0  0  0  0
 10 37  1  0  0  0  0
 11 18  1  0  0  0  0
 11 38  1  0  0  0  0
 11 39  1  0  0  0  0
 12 13  2  0  0  0  0
 12 14  1  0  0  0  0
 12 16  1  0  0  0  0
 13 17  1  0  0  0  0
 15 20  2  0  0  0  0
 15 21  1  0  0  0  0
 16 19  2  0  0  0  0
 16 40  1  0  0  0  0
 17 22  2  0  0  0  0
 17 42  1  0  0  0  0
 18 43  1  0  0  0  0
 18 44  1  0  0  0  0
 18 45  1  0  0  0  0
 19 22  1  0  0  0  0
 19 48  1  0  0  0  0
 20 23  1  0  0  0  0
 20 46  1  0  0  0  0
 21 24  2  0  0  0  0
 21 47  1  0  0  0  0
 22 49  1  0  0  0  0
 23 25  2  0  0  0  0
 23 50  1  0  0  0  0
 24 25  1  0  0  0  0
 24 51  1  0  0  0  0
 25 52  1  0  0  0  0
M  END
