DB01069
 OpenBabel07062211533D

 40 42  0  0  1  0  0  0  0  0999 V2000
    3.3309   -0.7838    0.9300 S   0  0  0  0  0  0  0  0  0  0  0  0
    0.5763   -0.0938   -0.3354 N   0  0  0  0  0  0  0  0  0  0  0  0
   -3.0460    0.2990    0.5087 N   0  0  0  0  0  0  0  0  0  0  0  0
   -1.6547   -0.1065    0.7171 C   0  0  1  0  0  0  0  0  0  0  0  0
   -0.8331    0.2764   -0.5181 C   0  0  0  0  0  0  0  0  0  0  0  0
    1.5316    0.9540   -0.3326 C   0  0  0  0  0  0  0  0  0  0  0  0
    0.8817   -1.4754   -0.2423 C   0  0  0  0  0  0  0  0  0  0  0  0
   -1.1335    0.5630    1.9888 C   0  0  0  0  0  0  0  0  0  0  0  0
    2.8242    0.7568    0.1923 C   0  0  0  0  0  0  0  0  0  0  0  0
    2.1100   -1.9133    0.2911 C   0  0  0  0  0  0  0  0  0  0  0  0
   -3.5818   -0.3224   -0.7012 C   0  0  0  0  0  0  0  0  0  0  0  0
   -3.1452    1.7550    0.4241 C   0  0  0  0  0  0  0  0  0  0  0  0
    1.2503    2.2239   -0.8826 C   0  0  0  0  0  0  0  0  0  0  0  0
   -0.0057   -2.4702   -0.7080 C   0  0  0  0  0  0  0  0  0  0  0  0
    3.7702    1.7974    0.1860 C   0  0  0  0  0  0  0  0  0  0  0  0
    2.4110   -3.2844    0.3738 C   0  0  0  0  0  0  0  0  0  0  0  0
    2.1958    3.2530   -0.8908 C   0  0  0  0  0  0  0  0  0  0  0  0
    0.3004   -3.8316   -0.6278 C   0  0  0  0  0  0  0  0  0  0  0  0
    3.4560    3.0405   -0.3529 C   0  0  0  0  0  0  0  0  0  0  0  0
    1.5087   -4.2393   -0.0833 C   0  0  0  0  0  0  0  0  0  0  0  0
   -1.6475   -1.1857    0.9018 H   0  0  0  0  0  0  0  0  0  0  0  0
   -1.1838   -0.1737   -1.4519 H   0  0  0  0  0  0  0  0  0  0  0  0
   -0.9539    1.3395   -0.6781 H   0  0  0  0  0  0  0  0  0  0  0  0
   -0.8577    1.6132    1.8468 H   0  0  0  0  0  0  0  0  0  0  0  0
   -1.8573    0.4942    2.8093 H   0  0  0  0  0  0  0  0  0  0  0  0
   -0.2283    0.0505    2.3356 H   0  0  0  0  0  0  0  0  0  0  0  0
   -3.3845   -1.4001   -0.7226 H   0  0  0  0  0  0  0  0  0  0  0  0
   -3.2303    0.1272   -1.6358 H   0  0  0  0  0  0  0  0  0  0  0  0
   -4.6736   -0.2173   -0.6996 H   0  0  0  0  0  0  0  0  0  0  0  0
   -4.2107    2.0159    0.3642 H   0  0  0  0  0  0  0  0  0  0  0  0
   -2.6909    2.2104   -0.4605 H   0  0  0  0  0  0  0  0  0  0  0  0
   -2.8001    2.2767    1.3209 H   0  0  0  0  0  0  0  0  0  0  0  0
    0.3231    2.4631   -1.3921 H   0  0  0  0  0  0  0  0  0  0  0  0
   -0.9583   -2.2232   -1.1669 H   0  0  0  0  0  0  0  0  0  0  0  0
    4.7651    1.6491    0.6011 H   0  0  0  0  0  0  0  0  0  0  0  0
    3.3547   -3.6238    0.7963 H   0  0  0  0  0  0  0  0  0  0  0  0
    1.9483    4.2137   -1.3330 H   0  0  0  0  0  0  0  0  0  0  0  0
   -0.4071   -4.5687   -0.9964 H   0  0  0  0  0  0  0  0  0  0  0  0
    4.1947    3.8360   -0.3583 H   0  0  0  0  0  0  0  0  0  0  0  0
    1.7510   -5.2955   -0.0178 H   0  0  0  0  0  0  0  0  0  0  0  0
  1  9  1  0  0  0  0
  1 10  1  0  0  0  0
  2  5  1  0  0  0  0
  2  6  1  0  0  0  0
  2  7  1  0  0  0  0
  3  4  1  0  0  0  0
  3 11  1  0  0  0  0
  3 12  1  0  0  0  0
  4  5  1  0  0  0  0
  4  8  1  0  0  0  0
  4 21  1  1  0  0  0
  5 22  1  0  0  0  0
  5 23  1  0  0  0  0
  6  9  2  0  0  0  0
  6 13  1  0  0  0  0
  7 10  2  0  0  0  0
  7 14  1  0  0  0  0
  8 24  1  0  0  0  0
  8 25  1  0  0  0  0
  8 26  1  0  0  0  0
  9 15  1  0  0  0  0
 10 16  1  0  0  0  0
 11 27  1  0  0  0  0
 11 28  1  0  0  0  0
 11 29  1  0  0  0  0
 12 30  1  0  0  0  0
 12 31  1  0  0  0  0
 12 32  1  0  0  0  0
 13 17  2  0  0  0  0
 13 33  1  0  0  0  0
 14 18  2  0  0  0  0
 14 34  1  0  0  0  0
 15 19  2  0  0  0  0
 15 35  1  0  0  0  0
 16 20  2  0  0  0  0
 16 36  1  0  0  0  0
 17 19  1  0  0  0  0
 17 37  1  0  0  0  0
 18 20  1  0  0  0  0
 18 38  1  0  0  0  0
 19 39  1  0  0  0  0
 20 40  1  0  0  0  0
M  END
