DB01209
 OpenBabel07062211533D

 41 43  0  0  1  0  0  0  0  0999 V2000
   -4.5635   -0.5256   -0.9408 O   0  0  0  0  0  0  0  0  0  0  0  0
    2.5547   -1.2587    1.2238 N   0  0  0  0  0  0  0  0  0  0  0  0
    0.1536   -1.2001    0.3941 C   0  0  2  0  0  0  0  0  0  0  0  0
    1.2572   -0.5799    1.3127 C   0  0  2  0  0  0  0  0  0  0  0  0
    1.3834    0.9548    1.2629 C   0  0  2  0  0  0  0  0  0  0  0  0
    0.6437   -1.5705   -1.0455 C   0  0  0  0  0  0  0  0  0  0  0  0
    0.0333    1.5874    1.6114 C   0  0  0  0  0  0  0  0  0  0  0  0
   -1.1126   -0.3200    0.3507 C   0  0  0  0  0  0  0  0  0  0  0  0
    2.0809    1.5941    0.0486 C   0  0  0  0  0  0  0  0  0  0  0  0
   -1.1446    0.9771    0.9016 C   0  0  0  0  0  0  0  0  0  0  0  0
    1.3745   -0.5516   -1.9254 C   0  0  0  0  0  0  0  0  0  0  0  0
   -0.2483   -2.5589    1.0614 C   0  0  0  0  0  0  0  0  0  0  0  0
    1.2795    1.9339   -1.2081 C   0  0  0  0  0  0  0  0  0  0  0  0
    0.7110    0.8074   -2.0693 C   0  0  0  0  0  0  0  0  0  0  0  0
   -2.2883   -0.7978   -0.2698 C   0  0  0  0  0  0  0  0  0  0  0  0
   -2.3291    1.7366    0.8441 C   0  0  0  0  0  0  0  0  0  0  0  0
   -3.4521   -0.0296   -0.3313 C   0  0  0  0  0  0  0  0  0  0  0  0
   -3.4734    1.2390    0.2285 C   0  0  0  0  0  0  0  0  0  0  0  0
    0.9344   -0.7771    2.3473 H   0  0  0  0  0  0  0  0  0  0  0  0
    2.0478    1.2166    2.1031 H   0  0  0  0  0  0  0  0  0  0  0  0
   -0.2083   -1.9418   -1.6311 H   0  0  0  0  0  0  0  0  0  0  0  0
    1.3135   -2.4397   -0.9730 H   0  0  0  0  0  0  0  0  0  0  0  0
    0.0744    2.6683    1.4278 H   0  0  0  0  0  0  0  0  0  0  0  0
   -0.1451    1.4628    2.6885 H   0  0  0  0  0  0  0  0  0  0  0  0
    2.9838    1.0336   -0.2147 H   0  0  0  0  0  0  0  0  0  0  0  0
    2.4722    2.5599    0.4043 H   0  0  0  0  0  0  0  0  0  0  0  0
    1.4177   -0.9996   -2.9288 H   0  0  0  0  0  0  0  0  0  0  0  0
    2.4241   -0.4603   -1.6361 H   0  0  0  0  0  0  0  0  0  0  0  0
   -0.6976   -2.3985    2.0493 H   0  0  0  0  0  0  0  0  0  0  0  0
   -0.9780   -3.1158    0.4630 H   0  0  0  0  0  0  0  0  0  0  0  0
    0.6092   -3.2270    1.1906 H   0  0  0  0  0  0  0  0  0  0  0  0
    1.9589    2.5107   -1.8524 H   0  0  0  0  0  0  0  0  0  0  0  0
    0.4745    2.6383   -0.9673 H   0  0  0  0  0  0  0  0  0  0  0  0
   -0.3722    0.7346   -1.9440 H   0  0  0  0  0  0  0  0  0  0  0  0
    0.8288    1.1263   -3.1148 H   0  0  0  0  0  0  0  0  0  0  0  0
    2.9620   -1.1382    0.3004 H   0  0  0  0  0  0  0  0  0  0  0  0
    2.4462   -2.2612    1.3586 H   0  0  0  0  0  0  0  0  0  0  0  0
   -2.3008   -1.7869   -0.7220 H   0  0  0  0  0  0  0  0  0  0  0  0
   -2.3607    2.7313    1.2839 H   0  0  0  0  0  0  0  0  0  0  0  0
   -4.3740    1.8451    0.1912 H   0  0  0  0  0  0  0  0  0  0  0  0
   -4.3706   -1.4189   -1.2734 H   0  0  0  0  0  0  0  0  0  0  0  0
  1 17  1  0  0  0  0
  1 41  1  0  0  0  0
  2  4  1  0  0  0  0
  2 36  1  0  0  0  0
  2 37  1  0  0  0  0
  3  4  1  1  0  0  0
  3  6  1  0  0  0  0
  3  8  1  0  0  0  0
  3 12  1  0  0  0  0
  4  5  1  6  0  0  0
  4 19  1  0  0  0  0
  5  7  1  0  0  0  0
  5  9  1  0  0  0  0
  5 20  1  1  0  0  0
  6 11  1  0  0  0  0
  6 21  1  0  0  0  0
  6 22  1  0  0  0  0
  7 10  1  0  0  0  0
  7 23  1  0  0  0  0
  7 24  1  0  0  0  0
  8 10  2  0  0  0  0
  8 15  1  0  0  0  0
  9 13  1  0  0  0  0
  9 25  1  0  0  0  0
  9 26  1  0  0  0  0
 10 16  1  0  0  0  0
 11 14  1  0  0  0  0
 11 27  1  0  0  0  0
 11 28  1  0  0  0  0
 12 29  1  0  0  0  0
 12 30  1  0  0  0  0
 12 31  1  0  0  0  0
 13 14  1  0  0  0  0
 13 32  1  0  0  0  0
 13 33  1  0  0  0  0
 14 34  1  0  0  0  0
 14 35  1  0  0  0  0
 15 17  2  0  0  0  0
 15 38  1  0  0  0  0
 16 18  2  0  0  0  0
 16 39  1  0  0  0  0
 17 18  1  0  0  0  0
 18 40  1  0  0  0  0
M  END
