DB01579
 OpenBabel07062211533D

 31 32  0  0  1  0  0  0  0  0999 V2000
    0.2587    1.7587   -0.5217 O   0  0  0  0  0  0  0  0  0  0  0  0
    2.3009   -0.0662    0.2800 N   0  0  0  0  0  0  0  0  0  0  0  0
    0.8994   -0.5321    0.1157 C   0  0  2  0  0  0  0  0  0  0  0  0
   -0.0706    0.6642    0.3449 C   0  0  2  0  0  0  0  0  0  0  0  0
    2.5666    1.0822   -0.6013 C   0  0  0  0  0  0  0  0  0  0  0  0
    1.5908    2.2083   -0.3031 C   0  0  0  0  0  0  0  0  0  0  0  0
    0.5698   -1.6722    1.0938 C   0  0  0  0  0  0  0  0  0  0  0  0
   -1.5250    0.3351    0.0729 C   0  0  0  0  0  0  0  0  0  0  0  0
    3.2855   -1.1178    0.0103 C   0  0  0  0  0  0  0  0  0  0  0  0
   -2.5308    0.9961    0.7759 C   0  0  0  0  0  0  0  0  0  0  0  0
   -1.8539   -0.6279   -0.8797 C   0  0  0  0  0  0  0  0  0  0  0  0
   -3.8692    0.6933    0.5257 C   0  0  0  0  0  0  0  0  0  0  0  0
   -3.1922   -0.9308   -1.1298 C   0  0  0  0  0  0  0  0  0  0  0  0
   -4.2000   -0.2702   -0.4273 C   0  0  0  0  0  0  0  0  0  0  0  0
    0.8161   -0.9035   -0.9121 H   0  0  0  0  0  0  0  0  0  0  0  0
    0.0199    1.0052    1.3868 H   0  0  0  0  0  0  0  0  0  0  0  0
    2.4737    0.7823   -1.6535 H   0  0  0  0  0  0  0  0  0  0  0  0
    3.5855    1.4542   -0.4433 H   0  0  0  0  0  0  0  0  0  0  0  0
    1.6947    2.5799    0.7235 H   0  0  0  0  0  0  0  0  0  0  0  0
    1.7736    3.0495   -0.9792 H   0  0  0  0  0  0  0  0  0  0  0  0
    1.1468   -2.5742    0.8669 H   0  0  0  0  0  0  0  0  0  0  0  0
    0.7913   -1.3793    2.1266 H   0  0  0  0  0  0  0  0  0  0  0  0
   -0.4815   -1.9699    1.0570 H   0  0  0  0  0  0  0  0  0  0  0  0
    3.2326   -1.9150    0.7577 H   0  0  0  0  0  0  0  0  0  0  0  0
    4.3043   -0.7185    0.0790 H   0  0  0  0  0  0  0  0  0  0  0  0
    3.1587   -1.5579   -0.9851 H   0  0  0  0  0  0  0  0  0  0  0  0
   -2.2859    1.7499    1.5192 H   0  0  0  0  0  0  0  0  0  0  0  0
   -1.1129   -1.1506   -1.4726 H   0  0  0  0  0  0  0  0  0  0  0  0
   -4.6539    1.2083    1.0721 H   0  0  0  0  0  0  0  0  0  0  0  0
   -3.4508   -1.6764   -1.8761 H   0  0  0  0  0  0  0  0  0  0  0  0
   -5.2422   -0.5048   -0.6233 H   0  0  0  0  0  0  0  0  0  0  0  0
  1  4  1  0  0  0  0
  1  6  1  0  0  0  0
  2  3  1  0  0  0  0
  2  5  1  0  0  0  0
  2  9  1  0  0  0  0
  3  4  1  1  0  0  0
  3  7  1  0  0  0  0
  3 15  1  0  0  0  0
  4  8  1  0  0  0  0
  4 16  1  1  0  0  0
  5  6  1  0  0  0  0
  5 17  1  0  0  0  0
  5 18  1  0  0  0  0
  6 19  1  0  0  0  0
  6 20  1  0  0  0  0
  7 21  1  0  0  0  0
  7 22  1  0  0  0  0
  7 23  1  0  0  0  0
  8 10  2  0  0  0  0
  8 11  1  0  0  0  0
  9 24  1  0  0  0  0
  9 25  1  0  0  0  0
  9 26  1  0  0  0  0
 10 12  1  0  0  0  0
 10 27  1  0  0  0  0
 11 13  2  0  0  0  0
 11 28  1  0  0  0  0
 12 14  2  0  0  0  0
 12 29  1  0  0  0  0
 13 14  1  0  0  0  0
 13 30  1  0  0  0  0
 14 31  1  0  0  0  0
M  END
