DB01261
 OpenBabel07062211533D

 43 45  0  0  1  0  0  0  0  0999 V2000
   -7.9806    0.1590    0.2327 F   0  0  0  0  0  0  0  0  0  0  0  0
   -6.6898    1.8252    0.7661 F   0  0  0  0  0  0  0  0  0  0  0  0
   -6.7208    1.0878   -1.2854 F   0  0  0  0  0  0  0  0  0  0  0  0
    2.9605    2.3384   -0.2448 F   0  0  0  0  0  0  0  0  0  0  0  0
    7.2994   -0.8063    0.8498 F   0  0  0  0  0  0  0  0  0  0  0  0
    7.6482    1.8036    0.1167 F   0  0  0  0  0  0  0  0  0  0  0  0
    0.1654    1.1303   -1.2107 O   0  0  0  0  0  0  0  0  0  0  0  0
   -1.5655    0.0806   -0.0635 N   0  0  0  0  0  0  0  0  0  0  0  0
   -4.3332    0.0331    0.1761 N   0  0  0  0  0  0  0  0  0  0  0  0
   -4.4907   -2.0171    0.8990 N   0  0  0  0  0  0  0  0  0  0  0  0
    2.5601   -2.2940   -0.9666 N   0  0  0  0  0  0  0  0  0  0  0  0
   -5.7654   -1.4956    0.7583 N   0  0  0  0  0  0  0  0  0  0  0  0
   -2.2781    1.3412    0.1963 C   0  0  0  0  0  0  0  0  0  0  0  0
   -3.7212    1.2559   -0.2882 C   0  0  0  0  0  0  0  0  0  0  0  0
   -2.1497   -1.1387    0.5295 C   0  0  0  0  0  0  0  0  0  0  0  0
   -3.6340   -1.0821    0.5420 C   0  0  2  0  0  0  0  0  0  0  0  0
    0.4208   -1.1908   -0.7985 C   0  0  0  0  0  0  0  0  0  0  0  0
    1.9344   -0.9751   -0.8019 C   0  0  1  0  0  0  0  0  0  0  0  0
   -0.3289    0.1158   -0.7131 C   0  0  0  0  0  0  0  0  0  0  0  0
    2.4676   -0.3416    0.5019 C   0  0  0  0  0  0  0  0  0  0  0  0
   -5.6466   -0.2604    0.3219 C   0  0  0  0  0  0  0  0  0  0  0  0
    3.8578    0.2367    0.3969 C   0  0  0  0  0  0  0  0  0  0  0  0
   -6.7370    0.6828    0.0182 C   0  0  0  0  0  0  0  0  0  0  0  0
    4.0193    1.5616    0.0237 C   0  0  0  0  0  0  0  0  0  0  0  0
    4.9492   -0.5703    0.6769 C   0  0  0  0  0  0  0  0  0  0  0  0
    6.2352   -0.0386    0.5814 C   0  0  0  0  0  0  0  0  0  0  0  0
    5.3053    2.0933   -0.0720 C   0  0  0  0  0  0  0  0  0  0  0  0
    6.4134    1.2931    0.2069 C   0  0  0  0  0  0  0  0  0  0  0  0
   -1.7728    2.1865   -0.2814 H   0  0  0  0  0  0  0  0  0  0  0  0
   -2.2424    1.5078    1.2801 H   0  0  0  0  0  0  0  0  0  0  0  0
   -4.2980    2.1096    0.0785 H   0  0  0  0  0  0  0  0  0  0  0  0
   -3.7655    1.2324   -1.3828 H   0  0  0  0  0  0  0  0  0  0  0  0
   -1.7631   -1.2268    1.5502 H   0  0  0  0  0  0  0  0  0  0  0  0
   -1.8507   -2.0217   -0.0414 H   0  0  0  0  0  0  0  0  0  0  0  0
    0.0893   -1.7002   -1.7114 H   0  0  0  0  0  0  0  0  0  0  0  0
    0.1867   -1.8317    0.0568 H   0  0  0  0  0  0  0  0  0  0  0  0
    2.2176   -0.3530   -1.6596 H   0  0  0  0  0  0  0  0  0  0  0  0
    1.7975    0.4610    0.8355 H   0  0  0  0  0  0  0  0  0  0  0  0
    2.4360   -1.0706    1.3246 H   0  0  0  0  0  0  0  0  0  0  0  0
    2.2082   -2.7385   -1.8137 H   0  0  0  0  0  0  0  0  0  0  0  0
    2.2950   -2.9049   -0.1947 H   0  0  0  0  0  0  0  0  0  0  0  0
    4.8232   -1.6076    0.9726 H   0  0  0  0  0  0  0  0  0  0  0  0
    5.4440    3.1301   -0.3630 H   0  0  0  0  0  0  0  0  0  0  0  0
  1 23  1  0  0  0  0
  2 23  1  0  0  0  0
  3 23  1  0  0  0  0
  4 24  1  0  0  0  0
  5 26  1  0  0  0  0
  6 28  1  0  0  0  0
  7 19  2  0  0  0  0
  8 13  1  0  0  0  0
  8 15  1  0  0  0  0
  8 19  1  0  0  0  0
  9 14  1  0  0  0  0
  9 16  1  0  0  0  0
  9 21  2  0  0  0  0
 10 12  2  0  0  0  0
 11 18  1  0  0  0  0
 11 40  1  0  0  0  0
 11 41  1  0  0  0  0
 12 21  1  0  0  0  0
 13 14  1  0  0  0  0
 13 29  1  0  0  0  0
 13 30  1  0  0  0  0
 14 31  1  0  0  0  0
 14 32  1  0  0  0  0
 15 16  1  0  0  0  0
 15 33  1  0  0  0  0
 15 34  1  0  0  0  0
 16 10  1  1  0  0  0
 17 18  1  0  0  0  0
 17 19  1  0  0  0  0
 17 35  1  0  0  0  0
 17 36  1  0  0  0  0
 18 20  1  0  0  0  0
 18 37  1  6  0  0  0
 20 22  1  0  0  0  0
 20 38  1  0  0  0  0
 20 39  1  0  0  0  0
 21 23  1  0  0  0  0
 22 24  2  0  0  0  0
 22 25  1  0  0  0  0
 24 27  1  0  0  0  0
 25 26  2  0  0  0  0
 25 42  1  0  0  0  0
 26 28  1  0  0  0  0
 27 28  2  0  0  0  0
 27 43  1  0  0  0  0
M  END
