DB01025
 OpenBabel07062211533D

 36 38  0  0  0  0  0  0  0  0999 V2000
    0.9263    1.9696    0.0233 O   0  0  0  0  0  0  0  0  0  0  0  0
    0.3828   -2.0795   -0.1082 O   0  0  0  0  0  0  0  0  0  0  0  0
    5.3033   -2.4581    0.4503 O   0  0  0  0  0  0  0  0  0  0  0  0
    6.5523   -0.9073   -0.6459 O   0  0  0  0  0  0  0  0  0  0  0  0
    3.2071    1.7408   -0.0119 N   0  0  0  0  0  0  0  0  0  0  0  0
    5.5727    1.5941   -0.0452 N   0  0  0  0  0  0  0  0  0  0  0  0
   -4.3758   -0.0018    0.0186 C   0  0  0  0  0  0  0  0  0  0  0  0
   -2.9690    0.4940    0.0194 C   0  0  0  0  0  0  0  0  0  0  0  0
   -0.5966    0.0613   -0.0238 C   0  0  0  0  0  0  0  0  0  0  0  0
   -1.9105   -0.4135   -0.0243 C   0  0  0  0  0  0  0  0  0  0  0  0
   -0.3365    1.4304    0.0201 C   0  0  0  0  0  0  0  0  0  0  0  0
   -2.7148    1.8651    0.0635 C   0  0  0  0  0  0  0  0  0  0  0  0
    1.8793   -0.2641   -0.0643 C   0  0  0  0  0  0  0  0  0  0  0  0
    0.5408   -0.8684   -0.0692 C   0  0  0  0  0  0  0  0  0  0  0  0
   -4.6967   -0.8642    1.2539 C   0  0  0  0  0  0  0  0  0  0  0  0
   -4.7259   -0.7774   -1.2653 C   0  0  0  0  0  0  0  0  0  0  0  0
   -1.4004    2.3337    0.0640 C   0  0  0  0  0  0  0  0  0  0  0  0
    2.0062    1.1174   -0.0187 C   0  0  0  0  0  0  0  0  0  0  0  0
    3.0300   -1.0487   -0.1049 C   0  0  0  0  0  0  0  0  0  0  0  0
    4.2730   -0.4285   -0.0986 C   0  0  0  0  0  0  0  0  0  0  0  0
    4.3074    0.9551   -0.0519 C   0  0  0  0  0  0  0  0  0  0  0  0
    5.4783   -1.2454   -0.1409 C   0  0  0  0  0  0  0  0  0  0  0  0
   -5.0559    0.8601    0.0562 H   0  0  0  0  0  0  0  0  0  0  0  0
   -2.1043   -1.4820   -0.0589 H   0  0  0  0  0  0  0  0  0  0  0  0
   -3.5298    2.5833    0.0978 H   0  0  0  0  0  0  0  0  0  0  0  0
   -4.1196   -1.7950    1.2652 H   0  0  0  0  0  0  0  0  0  0  0  0
   -5.7591   -1.1307    1.2701 H   0  0  0  0  0  0  0  0  0  0  0  0
   -4.4727   -0.3191    2.1776 H   0  0  0  0  0  0  0  0  0  0  0  0
   -4.5227   -0.1700   -2.1543 H   0  0  0  0  0  0  0  0  0  0  0  0
   -5.7885   -1.0430   -1.2753 H   0  0  0  0  0  0  0  0  0  0  0  0
   -4.1500   -1.7049   -1.3540 H   0  0  0  0  0  0  0  0  0  0  0  0
   -1.2134    3.4039    0.0984 H   0  0  0  0  0  0  0  0  0  0  0  0
    2.9433   -2.1308   -0.1538 H   0  0  0  0  0  0  0  0  0  0  0  0
    5.5663    2.6066   -0.0161 H   0  0  0  0  0  0  0  0  0  0  0  0
    6.3537    1.1185    0.3895 H   0  0  0  0  0  0  0  0  0  0  0  0
    6.1194   -3.0015    0.4177 H   0  0  0  0  0  0  0  0  0  0  0  0
  1 11  1  0  0  0  0
  1 18  1  0  0  0  0
  2 14  2  0  0  0  0
  3 22  1  0  0  0  0
  3 36  1  0  0  0  0
  4 22  2  0  0  0  0
  5 18  2  0  0  0  0
  5 21  1  0  0  0  0
  6 21  1  0  0  0  0
  6 34  1  0  0  0  0
  6 35  1  0  0  0  0
  7  8  1  0  0  0  0
  7 15  1  0  0  0  0
  7 16  1  0  0  0  0
  7 23  1  0  0  0  0
  8 10  2  0  0  0  0
  8 12  1  0  0  0  0
  9 10  1  0  0  0  0
  9 11  2  0  0  0  0
  9 14  1  0  0  0  0
 10 24  1  0  0  0  0
 11 17  1  0  0  0  0
 12 17  2  0  0  0  0
 12 25  1  0  0  0  0
 13 14  1  0  0  0  0
 13 18  1  0  0  0  0
 13 19  2  0  0  0  0
 15 26  1  0  0  0  0
 15 27  1  0  0  0  0
 15 28  1  0  0  0  0
 16 29  1  0  0  0  0
 16 30  1  0  0  0  0
 16 31  1  0  0  0  0
 17 32  1  0  0  0  0
 19 20  1  0  0  0  0
 19 33  1  0  0  0  0
 20 21  2  0  0  0  0
 20 22  1  0  0  0  0
M  END
