DB01070
 OpenBabel07062211533D

 75 77  0  0  1  0  0  0  0  0999 V2000
   -4.8871   -2.2318    1.9965 O   0  0  0  0  0  0  0  0  0  0  0  0
    0.3245    1.3699   -0.0329 C   0  0  2  0  0  0  0  0  0  0  0  0
    1.6923    0.8782   -0.5660 C   0  0  2  0  0  0  0  0  0  0  0  0
   -0.6037    0.7640   -1.1145 C   0  0  1  0  0  0  0  0  0  0  0  0
    1.4150   -0.5725   -1.0233 C   0  0  0  0  0  0  0  0  0  0  0  0
   -0.1064   -0.6777   -1.2373 C   0  0  0  0  0  0  0  0  0  0  0  0
    0.1518    2.9023   -0.0442 C   0  0  0  0  0  0  0  0  0  0  0  0
    2.8705    0.9829    0.3916 C   0  0  2  0  0  0  0  0  0  0  0  0
   -2.0461    1.1006   -0.8494 C   0  0  0  0  0  0  0  0  0  0  0  0
    0.0424    0.8251    1.3909 C   0  0  0  0  0  0  0  0  0  0  0  0
   -1.3167    3.3113    0.1707 C   0  0  0  0  0  0  0  0  0  0  0  0
   -2.2930    2.5936   -0.7756 C   0  0  0  0  0  0  0  0  0  0  0  0
    3.1025    2.4360    0.8130 C   0  0  0  0  0  0  0  0  0  0  0  0
   -3.0315    0.2052   -0.6973 C   0  0  0  0  0  0  0  0  0  0  0  0
    4.1190    0.4263   -0.2490 C   0  0  0  0  0  0  0  0  0  0  0  0
   -4.4037    0.5731   -0.4518 C   0  0  0  0  0  0  0  0  0  0  0  0
    4.8080   -0.6163    0.2404 C   0  0  0  0  0  0  0  0  0  0  0  0
   -5.3901   -0.3241   -0.2995 C   0  0  0  0  0  0  0  0  0  0  0  0
    6.0517   -1.1828   -0.4093 C   0  0  1  0  0  0  0  0  0  0  0  0
   -6.8146    0.0967    0.0000 C   0  0  2  0  0  0  0  0  0  0  0  0
   -5.1310   -1.8108   -0.3752 C   0  0  0  0  0  0  0  0  0  0  0  0
   -7.3410   -0.6571    1.2329 C   0  0  0  0  0  0  0  0  0  0  0  0
    7.2781   -1.0940    0.5430 C   0  0  0  0  0  0  0  0  0  0  0  0
   -5.6819   -2.5426    0.8525 C   0  0  2  0  0  0  0  0  0  0  0  0
   -7.1374   -2.1732    1.1450 C   0  0  0  0  0  0  0  0  0  0  0  0
    5.7485   -2.6218   -0.8430 C   0  0  0  0  0  0  0  0  0  0  0  0
   -7.7193   -0.0999   -1.2200 C   0  0  0  0  0  0  0  0  0  0  0  0
    7.5824    0.3490    0.9628 C   0  0  0  0  0  0  0  0  0  0  0  0
    8.5379   -1.6956   -0.0971 C   0  0  0  0  0  0  0  0  0  0  0  0
    1.9320    1.4556   -1.4734 H   0  0  0  0  0  0  0  0  0  0  0  0
   -0.3708    1.2388   -2.0828 H   0  0  0  0  0  0  0  0  0  0  0  0
    1.7282   -1.3132   -0.2786 H   0  0  0  0  0  0  0  0  0  0  0  0
    1.9521   -0.7933   -1.9528 H   0  0  0  0  0  0  0  0  0  0  0  0
   -0.3452   -1.1095   -2.2148 H   0  0  0  0  0  0  0  0  0  0  0  0
   -0.5399   -1.3322   -0.4728 H   0  0  0  0  0  0  0  0  0  0  0  0
    0.4923    3.3121   -1.0038 H   0  0  0  0  0  0  0  0  0  0  0  0
    0.7302    3.3995    0.7348 H   0  0  0  0  0  0  0  0  0  0  0  0
    2.6691    0.4031    1.3014 H   0  0  0  0  0  0  0  0  0  0  0  0
   -1.0064    0.9440    1.6795 H   0  0  0  0  0  0  0  0  0  0  0  0
    0.2727   -0.2413    1.4829 H   0  0  0  0  0  0  0  0  0  0  0  0
    0.6369    1.3507    2.1450 H   0  0  0  0  0  0  0  0  0  0  0  0
   -1.4101    4.3949    0.0298 H   0  0  0  0  0  0  0  0  0  0  0  0
   -1.6072    3.1121    1.2093 H   0  0  0  0  0  0  0  0  0  0  0  0
   -2.1505    2.9994   -1.7867 H   0  0  0  0  0  0  0  0  0  0  0  0
   -3.2947    2.9006   -0.4787 H   0  0  0  0  0  0  0  0  0  0  0  0
    3.0062    3.1341   -0.0252 H   0  0  0  0  0  0  0  0  0  0  0  0
    4.1149    2.5626    1.2176 H   0  0  0  0  0  0  0  0  0  0  0  0
    2.4322    2.7315    1.6229 H   0  0  0  0  0  0  0  0  0  0  0  0
   -2.7500   -0.8329   -0.7843 H   0  0  0  0  0  0  0  0  0  0  0  0
    4.4634    0.9099   -1.1605 H   0  0  0  0  0  0  0  0  0  0  0  0
   -4.6904    1.6131   -0.3773 H   0  0  0  0  0  0  0  0  0  0  0  0
    4.4654   -1.1012    1.1519 H   0  0  0  0  0  0  0  0  0  0  0  0
    6.2790   -0.6075   -1.3174 H   0  0  0  0  0  0  0  0  0  0  0  0
   -6.8419    1.1674    0.2441 H   0  0  0  0  0  0  0  0  0  0  0  0
   -5.6377   -2.1946   -1.2703 H   0  0  0  0  0  0  0  0  0  0  0  0
   -4.0892   -2.1071   -0.4807 H   0  0  0  0  0  0  0  0  0  0  0  0
   -8.4060   -0.4410    1.3811 H   0  0  0  0  0  0  0  0  0  0  0  0
   -6.8241   -0.2825    2.1264 H   0  0  0  0  0  0  0  0  0  0  0  0
    7.0640   -1.6670    1.4556 H   0  0  0  0  0  0  0  0  0  0  0  0
   -5.6132   -3.6256    0.6980 H   0  0  0  0  0  0  0  0  0  0  0  0
   -7.4494   -2.6207    2.0963 H   0  0  0  0  0  0  0  0  0  0  0  0
   -7.7853   -2.5870    0.3638 H   0  0  0  0  0  0  0  0  0  0  0  0
    6.5426   -3.0203   -1.4820 H   0  0  0  0  0  0  0  0  0  0  0  0
    4.8196   -2.6714   -1.4237 H   0  0  0  0  0  0  0  0  0  0  0  0
    5.6397   -3.2864    0.0215 H   0  0  0  0  0  0  0  0  0  0  0  0
   -8.7362    0.2448   -1.0024 H   0  0  0  0  0  0  0  0  0  0  0  0
   -7.3495    0.4784   -2.0741 H   0  0  0  0  0  0  0  0  0  0  0  0
   -7.7830   -1.1473   -1.5306 H   0  0  0  0  0  0  0  0  0  0  0  0
    8.4714    0.3895    1.6017 H   0  0  0  0  0  0  0  0  0  0  0  0
    7.7658    0.9843    0.0894 H   0  0  0  0  0  0  0  0  0  0  0  0
    6.7571    0.7846    1.5344 H   0  0  0  0  0  0  0  0  0  0  0  0
    8.7574   -1.2226   -1.0602 H   0  0  0  0  0  0  0  0  0  0  0  0
    9.4088   -1.5576    0.5531 H   0  0  0  0  0  0  0  0  0  0  0  0
    8.4299   -2.7724   -0.2578 H   0  0  0  0  0  0  0  0  0  0  0  0
   -3.9713   -2.4901    1.7966 H   0  0  0  0  0  0  0  0  0  0  0  0
  1 24  1  0  0  0  0
  1 75  1  0  0  0  0
  2  3  1  6  0  0  0
  2  7  1  0  0  0  0
  2 10  1  0  0  0  0
  3  5  1  0  0  0  0
  3  8  1  0  0  0  0
  3 30  1  6  0  0  0
  4  2  1  1  0  0  0
  4  6  1  0  0  0  0
  4  9  1  0  0  0  0
  4 31  1  0  0  0  0
  5  6  1  0  0  0  0
  5 32  1  0  0  0  0
  5 33  1  0  0  0  0
  6 34  1  0  0  0  0
  6 35  1  0  0  0  0
  7 11  1  0  0  0  0
  7 36  1  0  0  0  0
  7 37  1  0  0  0  0
  8 13  1  0  0  0  0
  8 15  1  0  0  0  0
  8 38  1  1  0  0  0
  9 12  1  0  0  0  0
  9 14  2  0  0  0  0
 10 39  1  0  0  0  0
 10 40  1  0  0  0  0
 10 41  1  0  0  0  0
 11 12  1  0  0  0  0
 11 42  1  0  0  0  0
 11 43  1  0  0  0  0
 12 44  1  0  0  0  0
 12 45  1  0  0  0  0
 13 46  1  0  0  0  0
 13 47  1  0  0  0  0
 13 48  1  0  0  0  0
 14 16  1  0  0  0  0
 14 49  1  0  0  0  0
 15 17  2  0  0  0  0
 15 50  1  0  0  0  0
 16 18  2  0  0  0  0
 16 51  1  0  0  0  0
 17 19  1  0  0  0  0
 17 52  1  0  0  0  0
 18 20  1  0  0  0  0
 18 21  1  0  0  0  0
 19 23  1  0  0  0  0
 19 26  1  0  0  0  0
 19 53  1  6  0  0  0
 20 22  1  0  0  0  0
 20 27  1  0  0  0  0
 20 54  1  1  0  0  0
 21 24  1  0  0  0  0
 21 55  1  0  0  0  0
 21 56  1  0  0  0  0
 22 25  1  0  0  0  0
 22 57  1  0  0  0  0
 22 58  1  0  0  0  0
 23 28  1  0  0  0  0
 23 29  1  0  0  0  0
 23 59  1  0  0  0  0
 24 25  1  0  0  0  0
 24 60  1  6  0  0  0
 25 61  1  0  0  0  0
 25 62  1  0  0  0  0
 26 63  1  0  0  0  0
 26 64  1  0  0  0  0
 26 65  1  0  0  0  0
 27 66  1  0  0  0  0
 27 67  1  0  0  0  0
 27 68  1  0  0  0  0
 28 69  1  0  0  0  0
 28 70  1  0  0  0  0
 28 71  1  0  0  0  0
 29 72  1  0  0  0  0
 29 73  1  0  0  0  0
 29 74  1  0  0  0  0
M  END
