DB01056
 OpenBabel07062211533D

 30 30  0  0  1  0  0  0  0  0999 V2000
    1.1838   -0.2869    1.7936 O   0  0  0  0  0  0  0  0  0  0  0  0
    0.3324   -0.1150   -0.3870 N   0  0  0  0  0  0  0  0  0  0  0  0
    3.5420   -1.1419    0.8139 N   0  0  0  0  0  0  0  0  0  0  0  0
   -1.0632   -0.0148   -0.1754 C   0  0  0  0  0  0  0  0  0  0  0  0
   -1.6391    1.2360   -0.0096 C   0  0  0  0  0  0  0  0  0  0  0  0
   -1.8315   -1.1689   -0.1374 C   0  0  0  0  0  0  0  0  0  0  0  0
    2.7136   -0.3224   -0.0672 C   0  0  1  0  0  0  0  0  0  0  0  0
    1.3305   -0.2459    0.5753 C   0  0  0  0  0  0  0  0  0  0  0  0
   -3.0147    1.3348    0.1989 C   0  0  0  0  0  0  0  0  0  0  0  0
   -3.2071   -1.0701    0.0709 C   0  0  0  0  0  0  0  0  0  0  0  0
   -0.8263    2.4895   -0.0477 C   0  0  0  0  0  0  0  0  0  0  0  0
   -1.2271   -2.5242   -0.3139 C   0  0  0  0  0  0  0  0  0  0  0  0
   -3.7988    0.1818    0.2391 C   0  0  0  0  0  0  0  0  0  0  0  0
    3.3426    1.0574   -0.2217 C   0  0  0  0  0  0  0  0  0  0  0  0
    2.6465   -0.8114   -1.0456 H   0  0  0  0  0  0  0  0  0  0  0  0
    0.6198    0.0384   -1.3510 H   0  0  0  0  0  0  0  0  0  0  0  0
   -3.4923    2.3019    0.3327 H   0  0  0  0  0  0  0  0  0  0  0  0
   -3.8329   -1.9579    0.1062 H   0  0  0  0  0  0  0  0  0  0  0  0
   -0.1267    2.5166    0.7942 H   0  0  0  0  0  0  0  0  0  0  0  0
   -0.2657    2.5571   -0.9862 H   0  0  0  0  0  0  0  0  0  0  0  0
   -1.4541    3.3849    0.0174 H   0  0  0  0  0  0  0  0  0  0  0  0
   -1.9899   -3.3098   -0.3468 H   0  0  0  0  0  0  0  0  0  0  0  0
   -0.6693   -2.5781   -1.2547 H   0  0  0  0  0  0  0  0  0  0  0  0
   -0.5546   -2.7532    0.5192 H   0  0  0  0  0  0  0  0  0  0  0  0
   -4.8699    0.2588    0.4018 H   0  0  0  0  0  0  0  0  0  0  0  0
    3.4216    1.5730    0.7425 H   0  0  0  0  0  0  0  0  0  0  0  0
    4.3442    0.9910   -0.6594 H   0  0  0  0  0  0  0  0  0  0  0  0
    2.7294    1.6873   -0.8756 H   0  0  0  0  0  0  0  0  0  0  0  0
    4.4832   -1.2160    0.4291 H   0  0  0  0  0  0  0  0  0  0  0  0
    3.1735   -2.0921    0.8445 H   0  0  0  0  0  0  0  0  0  0  0  0
  1  8  2  0  0  0  0
  2  4  1  0  0  0  0
  2  8  1  0  0  0  0
  2 16  1  0  0  0  0
  3  7  1  0  0  0  0
  3 29  1  0  0  0  0
  3 30  1  0  0  0  0
  4  5  2  0  0  0  0
  4  6  1  0  0  0  0
  5  9  1  0  0  0  0
  5 11  1  0  0  0  0
  6 10  2  0  0  0  0
  6 12  1  0  0  0  0
  7  8  1  0  0  0  0
  7 14  1  0  0  0  0
  7 15  1  6  0  0  0
  9 13  2  0  0  0  0
  9 17  1  0  0  0  0
 10 13  1  0  0  0  0
 10 18  1  0  0  0  0
 11 19  1  0  0  0  0
 11 20  1  0  0  0  0
 11 21  1  0  0  0  0
 12 22  1  0  0  0  0
 12 23  1  0  0  0  0
 12 24  1  0  0  0  0
 13 25  1  0  0  0  0
 14 26  1  0  0  0  0
 14 27  1  0  0  0  0
 14 28  1  0  0  0  0
M  END
