DB01452
 OpenBabel07062211533D

 50 54  0  0  1  0  0  0  0  0999 V2000
   -1.2131   -0.1638   -1.4632 O   0  0  0  0  0  0  0  0  0  0  0  0
   -2.4723    1.8167   -0.3180 O   0  0  0  0  0  0  0  0  0  0  0  0
   -2.4404   -2.6757   -0.6787 O   0  0  0  0  0  0  0  0  0  0  0  0
   -2.7999    3.7877    0.8414 O   0  0  0  0  0  0  0  0  0  0  0  0
   -3.4542   -1.4723    1.0541 O   0  0  0  0  0  0  0  0  0  0  0  0
    3.8783    0.4297   -0.3482 N   0  0  0  0  0  0  0  0  0  0  0  0
    1.0157    0.5682   -0.8087 C   0  0  1  0  0  0  0  0  0  0  0  0
    1.7249    1.4194    0.2555 C   0  0  2  0  0  0  0  0  0  0  0  0
    2.9293    0.5731    0.7822 C   0  0  1  0  0  0  0  0  0  0  0  0
   -0.3781    1.0342   -1.2909 C   0  0  2  0  0  0  0  0  0  0  0  0
    1.9880    0.2906   -1.9721 C   0  0  0  0  0  0  0  0  0  0  0  0
    0.5894   -0.7158   -0.1772 C   0  0  0  0  0  0  0  0  0  0  0  0
    2.4792   -0.7763    1.4408 C   0  0  0  0  0  0  0  0  0  0  0  0
    3.3288   -0.2946   -1.4987 C   0  0  0  0  0  0  0  0  0  0  0  0
    1.2616   -1.4036    0.8170 C   0  0  0  0  0  0  0  0  0  0  0  0
   -1.0690    2.0629   -0.3580 C   0  0  2  0  0  0  0  0  0  0  0  0
    0.7678    1.8835    1.3236 C   0  0  0  0  0  0  0  0  0  0  0  0
   -0.6503   -1.0991   -0.6376 C   0  0  0  0  0  0  0  0  0  0  0  0
   -0.5139    2.1571    1.0384 C   0  0  0  0  0  0  0  0  0  0  0  0
    5.1766   -0.1059    0.0479 C   0  0  0  0  0  0  0  0  0  0  0  0
    0.6915   -2.5972    1.2626 C   0  0  0  0  0  0  0  0  0  0  0  0
   -1.2288   -2.2772   -0.2193 C   0  0  0  0  0  0  0  0  0  0  0  0
   -0.5366   -3.0392    0.7307 C   0  0  0  0  0  0  0  0  0  0  0  0
   -3.2218    2.7662    0.3164 C   0  0  0  0  0  0  0  0  0  0  0  0
   -4.6685    2.3770    0.2802 C   0  0  0  0  0  0  0  0  0  0  0  0
   -3.5306   -2.1916    0.0669 C   0  0  0  0  0  0  0  0  0  0  0  0
   -4.8199   -2.6859   -0.5187 C   0  0  0  0  0  0  0  0  0  0  0  0
    2.1249    2.3348   -0.2066 H   0  0  0  0  0  0  0  0  0  0  0  0
    3.4392    1.1628    1.5565 H   0  0  0  0  0  0  0  0  0  0  0  0
   -0.3089    1.4872   -2.2885 H   0  0  0  0  0  0  0  0  0  0  0  0
    2.1838    1.2340   -2.4996 H   0  0  0  0  0  0  0  0  0  0  0  0
    1.5445   -0.3921   -2.7085 H   0  0  0  0  0  0  0  0  0  0  0  0
    2.2276   -0.5600    2.4881 H   0  0  0  0  0  0  0  0  0  0  0  0
    3.2958   -1.5044    1.4660 H   0  0  0  0  0  0  0  0  0  0  0  0
    3.2094   -1.3610   -1.2705 H   0  0  0  0  0  0  0  0  0  0  0  0
    4.0324   -0.2380   -2.3388 H   0  0  0  0  0  0  0  0  0  0  0  0
   -0.9171    3.0520   -0.8149 H   0  0  0  0  0  0  0  0  0  0  0  0
    1.1343    2.0203    2.3363 H   0  0  0  0  0  0  0  0  0  0  0  0
   -1.1300    2.4899    1.8669 H   0  0  0  0  0  0  0  0  0  0  0  0
    5.1353   -1.1639    0.3252 H   0  0  0  0  0  0  0  0  0  0  0  0
    5.5913    0.4580    0.8906 H   0  0  0  0  0  0  0  0  0  0  0  0
    5.8935   -0.0046   -0.7749 H   0  0  0  0  0  0  0  0  0  0  0  0
    1.1755   -3.1804    2.0414 H   0  0  0  0  0  0  0  0  0  0  0  0
   -0.9652   -3.9696    1.0962 H   0  0  0  0  0  0  0  0  0  0  0  0
   -4.8077    1.4213    0.7919 H   0  0  0  0  0  0  0  0  0  0  0  0
   -5.0088    2.3119   -0.7563 H   0  0  0  0  0  0  0  0  0  0  0  0
   -5.2621    3.1377    0.7954 H   0  0  0  0  0  0  0  0  0  0  0  0
   -4.9163   -2.3326   -1.5482 H   0  0  0  0  0  0  0  0  0  0  0  0
   -5.6575   -2.2937    0.0650 H   0  0  0  0  0  0  0  0  0  0  0  0
   -4.8474   -3.7776   -0.4813 H   0  0  0  0  0  0  0  0  0  0  0  0
  1 10  1  0  0  0  0
  1 18  1  0  0  0  0
  2 16  1  0  0  0  0
  2 24  1  0  0  0  0
  3 22  1  0  0  0  0
  3 26  1  0  0  0  0
  4 24  2  0  0  0  0
  5 26  2  0  0  0  0
  6  9  1  0  0  0  0
  6 14  1  0  0  0  0
  6 20  1  0  0  0  0
  7  8  1  1  0  0  0
  7 11  1  0  0  0  0
  7 12  1  0  0  0  0
  8  9  1  1  0  0  0
  8 17  1  0  0  0  0
  8 28  1  0  0  0  0
  9 13  1  0  0  0  0
  9 29  1  1  0  0  0
 10  7  1  1  0  0  0
 10 30  1  0  0  0  0
 11 14  1  0  0  0  0
 11 31  1  0  0  0  0
 11 32  1  0  0  0  0
 12 15  2  0  0  0  0
 12 18  1  0  0  0  0
 13 15  1  0  0  0  0
 13 33  1  0  0  0  0
 13 34  1  0  0  0  0
 14 35  1  0  0  0  0
 14 36  1  0  0  0  0
 15 21  1  0  0  0  0
 16 10  1  6  0  0  0
 16 19  1  0  0  0  0
 16 37  1  0  0  0  0
 17 19  2  0  0  0  0
 17 38  1  0  0  0  0
 18 22  2  0  0  0  0
 19 39  1  0  0  0  0
 20 40  1  0  0  0  0
 20 41  1  0  0  0  0
 20 42  1  0  0  0  0
 21 23  2  0  0  0  0
 21 43  1  0  0  0  0
 22 23  1  0  0  0  0
 23 44  1  0  0  0  0
 24 25  1  0  0  0  0
 25 45  1  0  0  0  0
 25 46  1  0  0  0  0
 25 47  1  0  0  0  0
 26 27  1  0  0  0  0
 27 48  1  0  0  0  0
 27 49  1  0  0  0  0
 27 50  1  0  0  0  0
M  END
