DB01028
 OpenBabel07062211533D

 12 11  0  0  0  0  0  0  0  0999 V2000
    2.0411   -1.8146   -0.4899 Cl  0  0  0  0  0  0  0  0  0  0  0  0
    3.0093    0.9229   -0.3400 Cl  0  0  0  0  0  0  0  0  0  0  0  0
    0.2358    0.4685   -1.4522 F   0  0  0  0  0  0  0  0  0  0  0  0
    0.1722    1.5161    0.4687 F   0  0  0  0  0  0  0  0  0  0  0  0
   -0.6292   -0.5895    0.3595 O   0  0  0  0  0  0  0  0  0  0  0  0
    0.3720    0.3065   -0.1137 C   0  0  0  0  0  0  0  0  0  0  0  0
    1.7588   -0.2094    0.2323 C   0  0  0  0  0  0  0  0  0  0  0  0
   -1.9453   -0.1475    0.0584 C   0  0  0  0  0  0  0  0  0  0  0  0
    1.8741   -0.3140    1.3150 H   0  0  0  0  0  0  0  0  0  0  0  0
   -2.1470    0.8175    0.5325 H   0  0  0  0  0  0  0  0  0  0  0  0
   -2.6523   -0.8823    0.4531 H   0  0  0  0  0  0  0  0  0  0  0  0
   -2.0896   -0.0741   -1.0236 H   0  0  0  0  0  0  0  0  0  0  0  0
  1  7  1  0  0  0  0
  2  7  1  0  0  0  0
  3  6  1  0  0  0  0
  4  6  1  0  0  0  0
  5  6  1  0  0  0  0
  5  8  1  0  0  0  0
  6  7  1  0  0  0  0
  7  9  1  0  0  0  0
  8 10  1  0  0  0  0
  8 11  1  0  0  0  0
  8 12  1  0  0  0  0
M  END
