DB01013
 OpenBabel07062211533D

 64 67  0  0  1  0  0  0  0  0999 V2000
   -4.8343    0.0322   -3.2940 Cl  0  0  0  0  0  0  0  0  0  0  0  0
    1.7139    1.5163    0.3671 F   0  0  0  0  0  0  0  0  0  0  0  0
   -2.6183    0.8710    0.0502 O   0  0  0  0  0  0  0  0  0  0  0  0
    1.6380   -0.5866   -2.5470 O   0  0  0  0  0  0  0  0  0  0  0  0
   -4.2012   -1.7256   -0.9929 O   0  0  0  0  0  0  0  0  0  0  0  0
   -4.7522    0.3023    0.7183 O   0  0  0  0  0  0  0  0  0  0  0  0
    6.2640    3.0539    1.2208 O   0  0  0  0  0  0  0  0  0  0  0  0
   -0.8425   -0.6667   -0.6527 C   0  0  1  0  0  0  0  0  0  0  0  0
   -0.1244   -0.6096    0.7135 C   0  0  2  0  0  0  0  0  0  0  0  0
    1.3963   -0.8054    0.6121 C   0  0  1  0  0  0  0  0  0  0  0  0
    1.9999    0.3278   -0.2873 C   0  0  1  0  0  0  0  0  0  0  0  0
   -2.3240   -0.5117   -0.1877 C   0  0  1  0  0  0  0  0  0  0  0  0
   -0.9359   -1.5779    1.5684 C   0  0  0  0  0  0  0  0  0  0  0  0
   -0.2803    0.4834   -1.5151 C   0  0  0  0  0  0  0  0  0  0  0  0
   -2.4034   -1.2644    1.1786 C   0  0  2  0  0  0  0  0  0  0  0  0
    1.2592    0.4483   -1.6531 C   0  0  2  0  0  0  0  0  0  0  0  0
    3.5762    0.2520   -0.3583 C   0  0  1  0  0  0  0  0  0  0  0  0
    2.0312   -0.7999    2.0150 C   0  0  0  0  0  0  0  0  0  0  0  0
   -0.6618   -2.0255   -1.3844 C   0  0  0  0  0  0  0  0  0  0  0  0
    3.5525   -0.8727    1.9617 C   0  0  0  0  0  0  0  0  0  0  0  0
    4.0997    0.2226    1.0827 C   0  0  0  0  0  0  0  0  0  0  0  0
   -3.3466   -0.8718   -1.2254 C   0  0  0  0  0  0  0  0  0  0  0  0
   -3.2547   -2.5297    1.2167 C   0  0  0  0  0  0  0  0  0  0  0  0
    4.1150   -1.0005   -1.0867 C   0  0  0  0  0  0  0  0  0  0  0  0
    4.1257    1.4512   -1.1178 C   0  0  0  0  0  0  0  0  0  0  0  0
    4.9587    1.1245    1.5833 C   0  0  0  0  0  0  0  0  0  0  0  0
   -3.2429   -0.1261   -2.5360 C   0  0  0  0  0  0  0  0  0  0  0  0
    4.9796    2.3535   -0.6246 C   0  0  0  0  0  0  0  0  0  0  0  0
   -3.8790    1.1318    0.5044 C   0  0  0  0  0  0  0  0  0  0  0  0
    5.4673    2.2422    0.7622 C   0  0  0  0  0  0  0  0  0  0  0  0
   -4.0256    2.6221    0.7038 C   0  0  0  0  0  0  0  0  0  0  0  0
   -5.4130    2.9997    1.1927 C   0  0  0  0  0  0  0  0  0  0  0  0
   -0.2825    0.3897    1.1514 H   0  0  0  0  0  0  0  0  0  0  0  0
    1.6105   -1.7814    0.1659 H   0  0  0  0  0  0  0  0  0  0  0  0
   -0.6672   -2.6183    1.3527 H   0  0  0  0  0  0  0  0  0  0  0  0
   -0.7742   -1.4122    2.6391 H   0  0  0  0  0  0  0  0  0  0  0  0
   -0.5506    1.4530   -1.0798 H   0  0  0  0  0  0  0  0  0  0  0  0
   -0.7012    0.4515   -2.5238 H   0  0  0  0  0  0  0  0  0  0  0  0
   -2.7749   -0.6017    1.9709 H   0  0  0  0  0  0  0  0  0  0  0  0
    1.5330    1.4019   -2.1218 H   0  0  0  0  0  0  0  0  0  0  0  0
    1.6620   -1.6525    2.5971 H   0  0  0  0  0  0  0  0  0  0  0  0
    1.7299    0.1058    2.5576 H   0  0  0  0  0  0  0  0  0  0  0  0
   -1.2008   -2.8408   -0.8949 H   0  0  0  0  0  0  0  0  0  0  0  0
   -1.0273   -1.9781   -2.4143 H   0  0  0  0  0  0  0  0  0  0  0  0
    0.3800   -2.3464   -1.4416 H   0  0  0  0  0  0  0  0  0  0  0  0
    3.8703   -1.8495    1.5792 H   0  0  0  0  0  0  0  0  0  0  0  0
    3.9467   -0.8019    2.9828 H   0  0  0  0  0  0  0  0  0  0  0  0
   -4.3261   -2.3105    1.2050 H   0  0  0  0  0  0  0  0  0  0  0  0
   -3.0010   -3.2425    0.4270 H   0  0  0  0  0  0  0  0  0  0  0  0
   -3.0797   -3.0533    2.1653 H   0  0  0  0  0  0  0  0  0  0  0  0
    4.0310   -0.9252   -2.1756 H   0  0  0  0  0  0  0  0  0  0  0  0
    5.1837   -1.1469   -0.8792 H   0  0  0  0  0  0  0  0  0  0  0  0
    3.6039   -1.9184   -0.7817 H   0  0  0  0  0  0  0  0  0  0  0  0
    3.8202    1.5728   -2.1547 H   0  0  0  0  0  0  0  0  0  0  0  0
    2.2331   -0.1994   -3.2111 H   0  0  0  0  0  0  0  0  0  0  0  0
    5.3004    1.0787    2.6119 H   0  0  0  0  0  0  0  0  0  0  0  0
   -2.5980   -0.6651   -3.2305 H   0  0  0  0  0  0  0  0  0  0  0  0
   -2.8834    0.8935   -2.3954 H   0  0  0  0  0  0  0  0  0  0  0  0
    5.3408    3.1774   -1.2289 H   0  0  0  0  0  0  0  0  0  0  0  0
   -3.2806    2.9482    1.4371 H   0  0  0  0  0  0  0  0  0  0  0  0
   -3.8307    3.1198   -0.2522 H   0  0  0  0  0  0  0  0  0  0  0  0
   -5.6357    2.5203    2.1517 H   0  0  0  0  0  0  0  0  0  0  0  0
   -5.4887    4.0832    1.3256 H   0  0  0  0  0  0  0  0  0  0  0  0
   -6.1803    2.6876    0.4764 H   0  0  0  0  0  0  0  0  0  0  0  0
  1 27  1  0  0  0  0
  2 11  1  0  0  0  0
  3 12  1  0  0  0  0
  3 29  1  0  0  0  0
  4 16  1  0  0  0  0
  4 55  1  0  0  0  0
  5 22  2  0  0  0  0
  6 29  2  0  0  0  0
  7 30  2  0  0  0  0
  8  9  1  1  0  0  0
  8 14  1  0  0  0  0
  8 19  1  0  0  0  0
  9 10  1  6  0  0  0
  9 13  1  0  0  0  0
  9 33  1  0  0  0  0
 10 11  1  6  0  0  0
 10 18  1  0  0  0  0
 10 34  1  0  0  0  0
 11 16  1  6  0  0  0
 12  8  1  6  0  0  0
 12 22  1  0  0  0  0
 13 15  1  0  0  0  0
 13 35  1  0  0  0  0
 13 36  1  0  0  0  0
 14 16  1  0  0  0  0
 14 37  1  0  0  0  0
 14 38  1  0  0  0  0
 15 12  1  6  0  0  0
 15 23  1  0  0  0  0
 15 39  1  0  0  0  0
 16 40  1  6  0  0  0
 17 11  1  6  0  0  0
 17 21  1  0  0  0  0
 17 24  1  0  0  0  0
 17 25  1  0  0  0  0
 18 20  1  0  0  0  0
 18 41  1  0  0  0  0
 18 42  1  0  0  0  0
 19 43  1  0  0  0  0
 19 44  1  0  0  0  0
 19 45  1  0  0  0  0
 20 21  1  0  0  0  0
 20 46  1  0  0  0  0
 20 47  1  0  0  0  0
 21 26  2  0  0  0  0
 22 27  1  0  0  0  0
 23 48  1  0  0  0  0
 23 49  1  0  0  0  0
 23 50  1  0  0  0  0
 24 51  1  0  0  0  0
 24 52  1  0  0  0  0
 24 53  1  0  0  0  0
 25 28  2  0  0  0  0
 25 54  1  0  0  0  0
 26 30  1  0  0  0  0
 26 56  1  0  0  0  0
 27 57  1  0  0  0  0
 27 58  1  0  0  0  0
 28 30  1  0  0  0  0
 28 59  1  0  0  0  0
 29 31  1  0  0  0  0
 31 32  1  0  0  0  0
 31 60  1  0  0  0  0
 31 61  1  0  0  0  0
 32 62  1  0  0  0  0
 32 63  1  0  0  0  0
 32 64  1  0  0  0  0
M  END
