DB01264
 OpenBabel07062211533D

 75 78  0  0  1  0  0  0  0  0999 V2000
    3.9036    0.8369   -1.4648 S   0  0  0  0  0  0  0  0  0  0  0  0
   -4.2980   -3.7632    0.7054 O   0  0  0  0  0  0  0  0  0  0  0  0
   -3.7649   -2.8750    2.8514 O   0  0  0  0  0  0  0  0  0  0  0  0
   -3.2899   -0.9932    0.1974 O   0  0  0  0  0  0  0  0  0  0  0  0
    0.1513   -1.1158   -2.5741 O   0  0  0  0  0  0  0  0  0  0  0  0
   -3.4389   -0.1292   -1.9253 O   0  0  0  0  0  0  0  0  0  0  0  0
    3.1719    2.0002   -1.9316 O   0  0  0  0  0  0  0  0  0  0  0  0
    5.0634    0.3785   -2.2070 O   0  0  0  0  0  0  0  0  0  0  0  0
   -1.5380    0.1362   -0.6235 N   0  0  0  0  0  0  0  0  0  0  0  0
    2.8064   -0.4761   -1.2380 N   0  0  0  0  0  0  0  0  0  0  0  0
    5.7143    2.0010    4.1047 N   0  0  0  0  0  0  0  0  0  0  0  0
   -5.2804   -1.7095    1.4189 C   0  0  2  0  0  0  0  0  0  0  0  0
   -4.7852   -3.0752    1.8643 C   0  0  1  0  0  0  0  0  0  0  0  0
   -4.6051   -1.5158    0.0708 C   0  0  2  0  0  0  0  0  0  0  0  0
   -4.8769   -0.8004    2.5516 C   0  0  0  0  0  0  0  0  0  0  0  0
   -4.5290   -2.9369   -0.4464 C   0  0  0  0  0  0  0  0  0  0  0  0
   -3.6580   -1.4776    3.1425 C   0  0  0  0  0  0  0  0  0  0  0  0
   -0.7456    0.8981   -1.5681 C   0  0  2  0  0  0  0  0  0  0  0  0
    0.5280    0.1194   -1.9652 C   0  0  1  0  0  0  0  0  0  0  0  0
   -2.8135   -0.3096   -0.8856 C   0  0  0  0  0  0  0  0  0  0  0  0
    1.4374   -0.1622   -0.7661 C   0  0  0  0  0  0  0  0  0  0  0  0
   -0.4567    2.2872   -0.9666 C   0  0  0  0  0  0  0  0  0  0  0  0
    3.3376   -1.7208   -0.6235 C   0  0  0  0  0  0  0  0  0  0  0  0
    2.6264   -2.9690   -1.1602 C   0  0  0  0  0  0  0  0  0  0  0  0
   -1.6414    3.2207   -0.9861 C   0  0  0  0  0  0  0  0  0  0  0  0
    4.4397    1.1812    0.1875 C   0  0  0  0  0  0  0  0  0  0  0  0
    2.7843   -3.1219   -2.6737 C   0  0  0  0  0  0  0  0  0  0  0  0
    3.0775   -4.2407   -0.4406 C   0  0  0  0  0  0  0  0  0  0  0  0
   -1.8548    4.0539   -2.0843 C   0  0  0  0  0  0  0  0  0  0  0  0
   -2.5238    3.2507    0.0938 C   0  0  0  0  0  0  0  0  0  0  0  0
    5.5609    0.5336    0.7061 C   0  0  0  0  0  0  0  0  0  0  0  0
    3.7413    2.1010    0.9701 C   0  0  0  0  0  0  0  0  0  0  0  0
   -2.9503    4.9172   -2.1025 C   0  0  0  0  0  0  0  0  0  0  0  0
   -3.6195    4.1139    0.0754 C   0  0  0  0  0  0  0  0  0  0  0  0
   -3.8326    4.9471   -1.0228 C   0  0  0  0  0  0  0  0  0  0  0  0
    5.9842    0.8057    2.0068 C   0  0  0  0  0  0  0  0  0  0  0  0
    4.1647    2.3733    2.2711 C   0  0  0  0  0  0  0  0  0  0  0  0
    5.2861    1.7256    2.7895 C   0  0  0  0  0  0  0  0  0  0  0  0
   -6.3669   -1.7269    1.2710 H   0  0  0  0  0  0  0  0  0  0  0  0
   -5.5810   -3.6729    2.3208 H   0  0  0  0  0  0  0  0  0  0  0  0
   -5.2195   -0.8730   -0.5699 H   0  0  0  0  0  0  0  0  0  0  0  0
   -5.6753   -0.7900    3.3037 H   0  0  0  0  0  0  0  0  0  0  0  0
   -4.6900    0.2356    2.2551 H   0  0  0  0  0  0  0  0  0  0  0  0
   -3.7227   -3.1039   -1.1659 H   0  0  0  0  0  0  0  0  0  0  0  0
   -5.4800   -3.2503   -0.8905 H   0  0  0  0  0  0  0  0  0  0  0  0
   -3.5908   -1.3355    4.2251 H   0  0  0  0  0  0  0  0  0  0  0  0
   -2.7297   -1.1071    2.6964 H   0  0  0  0  0  0  0  0  0  0  0  0
   -1.3409    1.0203   -2.4824 H   0  0  0  0  0  0  0  0  0  0  0  0
    1.0588    0.6930   -2.7321 H   0  0  0  0  0  0  0  0  0  0  0  0
    1.0288   -0.9745   -0.1565 H   0  0  0  0  0  0  0  0  0  0  0  0
    1.4979    0.6982   -0.0965 H   0  0  0  0  0  0  0  0  0  0  0  0
   -1.1397   -0.0744    0.2867 H   0  0  0  0  0  0  0  0  0  0  0  0
   -0.0964    2.2051    0.0671 H   0  0  0  0  0  0  0  0  0  0  0  0
    0.3590    2.7641   -1.5256 H   0  0  0  0  0  0  0  0  0  0  0  0
    3.2353   -1.6619    0.4669 H   0  0  0  0  0  0  0  0  0  0  0  0
    4.4066   -1.8162   -0.8446 H   0  0  0  0  0  0  0  0  0  0  0  0
    1.5514   -2.8836   -0.9653 H   0  0  0  0  0  0  0  0  0  0  0  0
   -0.3731   -1.6176   -1.9270 H   0  0  0  0  0  0  0  0  0  0  0  0
    2.4292   -2.2421   -3.2167 H   0  0  0  0  0  0  0  0  0  0  0  0
    2.2169   -3.9858   -3.0363 H   0  0  0  0  0  0  0  0  0  0  0  0
    3.8354   -3.2755   -2.9417 H   0  0  0  0  0  0  0  0  0  0  0  0
    2.5258   -5.1136   -0.8052 H   0  0  0  0  0  0  0  0  0  0  0  0
    4.1458   -4.4242   -0.5974 H   0  0  0  0  0  0  0  0  0  0  0  0
    2.9019   -4.1592    0.6372 H   0  0  0  0  0  0  0  0  0  0  0  0
   -1.1759    4.0380   -2.9329 H   0  0  0  0  0  0  0  0  0  0  0  0
   -2.3693    2.6078    0.9563 H   0  0  0  0  0  0  0  0  0  0  0  0
    6.1189   -0.1874    0.1156 H   0  0  0  0  0  0  0  0  0  0  0  0
    2.8658    2.6178    0.5875 H   0  0  0  0  0  0  0  0  0  0  0  0
   -3.1167    5.5654   -2.9579 H   0  0  0  0  0  0  0  0  0  0  0  0
   -4.3067    4.1370    0.9161 H   0  0  0  0  0  0  0  0  0  0  0  0
    6.8592    0.2943    2.3996 H   0  0  0  0  0  0  0  0  0  0  0  0
    3.6123    3.0921    2.8709 H   0  0  0  0  0  0  0  0  0  0  0  0
   -4.6859    5.6189   -1.0372 H   0  0  0  0  0  0  0  0  0  0  0  0
    5.2083    2.6674    4.6728 H   0  0  0  0  0  0  0  0  0  0  0  0
    6.5269    1.5313    4.4813 H   0  0  0  0  0  0  0  0  0  0  0  0
  1  7  2  0  0  0  0
  1  8  2  0  0  0  0
  1 10  1  0  0  0  0
  1 26  1  0  0  0  0
  2 13  1  0  0  0  0
  2 16  1  0  0  0  0
  3 13  1  0  0  0  0
  3 17  1  0  0  0  0
  4 14  1  0  0  0  0
  4 20  1  0  0  0  0
  5 19  1  0  0  0  0
  5 58  1  0  0  0  0
  6 20  2  0  0  0  0
  9 18  1  0  0  0  0
  9 20  1  0  0  0  0
  9 52  1  0  0  0  0
 10 21  1  0  0  0  0
 10 23  1  0  0  0  0
 11 38  1  0  0  0  0
 11 74  1  0  0  0  0
 11 75  1  0  0  0  0
 12 13  1  1  0  0  0
 12 15  1  0  0  0  0
 12 39  1  0  0  0  0
 13 40  1  1  0  0  0
 14 12  1  1  0  0  0
 14 16  1  0  0  0  0
 14 41  1  0  0  0  0
 15 17  1  0  0  0  0
 15 42  1  0  0  0  0
 15 43  1  0  0  0  0
 16 44  1  0  0  0  0
 16 45  1  0  0  0  0
 17 46  1  0  0  0  0
 17 47  1  0  0  0  0
 18 19  1  0  0  0  0
 18 22  1  0  0  0  0
 18 48  1  6  0  0  0
 19 21  1  0  0  0  0
 19 49  1  6  0  0  0
 21 50  1  0  0  0  0
 21 51  1  0  0  0  0
 22 25  1  0  0  0  0
 22 53  1  0  0  0  0
 22 54  1  0  0  0  0
 23 24  1  0  0  0  0
 23 55  1  0  0  0  0
 23 56  1  0  0  0  0
 24 27  1  0  0  0  0
 24 28  1  0  0  0  0
 24 57  1  0  0  0  0
 25 29  2  0  0  0  0
 25 30  1  0  0  0  0
 26 31  2  0  0  0  0
 26 32  1  0  0  0  0
 27 59  1  0  0  0  0
 27 60  1  0  0  0  0
 27 61  1  0  0  0  0
 28 62  1  0  0  0  0
 28 63  1  0  0  0  0
 28 64  1  0  0  0  0
 29 33  1  0  0  0  0
 29 65  1  0  0  0  0
 30 34  2  0  0  0  0
 30 66  1  0  0  0  0
 31 36  1  0  0  0  0
 31 67  1  0  0  0  0
 32 37  2  0  0  0  0
 32 68  1  0  0  0  0
 33 35  2  0  0  0  0
 33 69  1  0  0  0  0
 34 35  1  0  0  0  0
 34 70  1  0  0  0  0
 35 73  1  0  0  0  0
 36 38  2  0  0  0  0
 36 71  1  0  0  0  0
 37 38  1  0  0  0  0
 37 72  1  0  0  0  0
M  END
