DB01325
 OpenBabel07062211533D

 30 31  0  0  1  0  0  0  0  0999 V2000
   -3.3373    2.7205   -0.3876 Cl  0  0  0  0  0  0  0  0  0  0  0  0
   -4.0855   -0.3923   -0.8291 S   0  0  0  0  0  0  0  0  0  0  0  0
    0.4607   -2.7149    0.6165 O   0  0  0  0  0  0  0  0  0  0  0  0
   -4.6624    0.7307   -1.5620 O   0  0  0  0  0  0  0  0  0  0  0  0
   -3.8807   -1.6772   -1.4888 O   0  0  0  0  0  0  0  0  0  0  0  0
    1.3734    1.2448    0.8883 N   0  0  0  0  0  0  0  0  0  0  0  0
    2.0281   -1.0643    0.9391 N   0  0  0  0  0  0  0  0  0  0  0  0
   -5.0529   -0.6532    0.5680 N   0  0  0  0  0  0  0  0  0  0  0  0
    2.4703    0.3080    0.7469 C   0  0  1  0  0  0  0  0  0  0  0  0
    0.1004    0.8679    0.4851 C   0  0  0  0  0  0  0  0  0  0  0  0
    3.1314    0.4817   -0.6166 C   0  0  0  0  0  0  0  0  0  0  0  0
   -0.2380   -0.4822    0.3078 C   0  0  0  0  0  0  0  0  0  0  0  0
    0.7670   -1.5270    0.6166 C   0  0  0  0  0  0  0  0  0  0  0  0
   -1.5249   -0.8547   -0.0976 C   0  0  0  0  0  0  0  0  0  0  0  0
   -2.4894    0.1255   -0.3228 C   0  0  0  0  0  0  0  0  0  0  0  0
   -0.8899    1.8363    0.2726 C   0  0  0  0  0  0  0  0  0  0  0  0
   -2.1743    1.4689   -0.1339 C   0  0  0  0  0  0  0  0  0  0  0  0
    4.2985   -0.4714   -0.7925 C   0  0  0  0  0  0  0  0  0  0  0  0
    3.2031    0.5100    1.5364 H   0  0  0  0  0  0  0  0  0  0  0  0
    1.5834    2.2321    0.9789 H   0  0  0  0  0  0  0  0  0  0  0  0
    3.4876    1.5136   -0.7248 H   0  0  0  0  0  0  0  0  0  0  0  0
    2.4111    0.3124   -1.4268 H   0  0  0  0  0  0  0  0  0  0  0  0
    2.7240   -1.7512    1.2135 H   0  0  0  0  0  0  0  0  0  0  0  0
   -1.7670   -1.9074   -0.2137 H   0  0  0  0  0  0  0  0  0  0  0  0
   -0.6471    2.8876    0.4192 H   0  0  0  0  0  0  0  0  0  0  0  0
    5.0265   -0.3616    0.0178 H   0  0  0  0  0  0  0  0  0  0  0  0
    3.9719   -1.5153   -0.8272 H   0  0  0  0  0  0  0  0  0  0  0  0
    4.8135   -0.2600   -1.7355 H   0  0  0  0  0  0  0  0  0  0  0  0
   -5.2918   -1.6246    0.8020 H   0  0  0  0  0  0  0  0  0  0  0  0
   -5.8093    0.0178    0.7503 H   0  0  0  0  0  0  0  0  0  0  0  0
  1 17  1  0  0  0  0
  2  4  2  0  0  0  0
  2  5  2  0  0  0  0
  2  8  1  0  0  0  0
  2 15  1  0  0  0  0
  3 13  2  0  0  0  0
  6  9  1  0  0  0  0
  6 10  1  0  0  0  0
  6 20  1  0  0  0  0
  7  9  1  0  0  0  0
  7 13  1  0  0  0  0
  7 23  1  0  0  0  0
  8 29  1  0  0  0  0
  8 30  1  0  0  0  0
  9 11  1  0  0  0  0
  9 19  1  1  0  0  0
 10 12  2  0  0  0  0
 10 16  1  0  0  0  0
 11 18  1  0  0  0  0
 11 21  1  0  0  0  0
 11 22  1  0  0  0  0
 12 13  1  0  0  0  0
 12 14  1  0  0  0  0
 14 15  2  0  0  0  0
 14 24  1  0  0  0  0
 15 17  1  0  0  0  0
 16 17  2  0  0  0  0
 16 25  1  0  0  0  0
 18 26  1  0  0  0  0
 18 27  1  0  0  0  0
 18 28  1  0  0  0  0
M  END
