DB01605
 OpenBabel07062211533D

 63 65  0  0  1  0  0  0  0  0999 V2000
   -0.9897    0.6763   -0.4487 S   0  0  0  0  0  0  0  0  0  0  0  0
   -0.7664   -3.5128    0.8979 O   0  0  0  0  0  0  0  0  0  0  0  0
    3.0173   -1.4313    1.4343 O   0  0  0  0  0  0  0  0  0  0  0  0
    2.7272   -1.9541   -0.7976 O   0  0  0  0  0  0  0  0  0  0  0  0
    5.2148   -1.2327    0.4819 O   0  0  0  0  0  0  0  0  0  0  0  0
    5.4428    0.5049    1.9730 O   0  0  0  0  0  0  0  0  0  0  0  0
    0.0470   -1.7002   -0.3761 N   0  0  0  0  0  0  0  0  0  0  0  0
   -3.0353   -1.4780    0.0591 N   0  0  0  0  0  0  0  0  0  0  0  0
   -5.3332   -0.8641   -0.0460 N   0  0  0  0  0  0  0  0  0  0  0  0
   -0.9139   -0.9820   -1.2186 C   0  0  1  0  0  0  0  0  0  0  0  0
    0.7880    0.5487    0.0926 C   0  0  0  0  0  0  0  0  0  0  0  0
    0.9496   -0.9408    0.4653 C   0  0  2  0  0  0  0  0  0  0  0  0
   -1.9702   -2.0014   -0.7704 C   0  0  1  0  0  0  0  0  0  0  0  0
   -0.8422   -2.6359    0.0673 C   0  0  0  0  0  0  0  0  0  0  0  0
    1.0046    1.4541    1.3065 C   0  0  0  0  0  0  0  0  0  0  0  0
    1.6710    1.0128   -1.0738 C   0  0  0  0  0  0  0  0  0  0  0  0
    2.3199   -1.5050    0.2653 C   0  0  0  0  0  0  0  0  0  0  0  0
   -4.1662   -1.3299   -0.5587 C   0  0  0  0  0  0  0  0  0  0  0  0
   -5.4274   -0.5074    1.3682 C   0  0  0  0  0  0  0  0  0  0  0  0
   -6.5240   -0.7589   -0.8845 C   0  0  0  0  0  0  0  0  0  0  0  0
   -6.4211    0.6099    1.6814 C   0  0  0  0  0  0  0  0  0  0  0  0
   -6.6160    0.6385   -1.4918 C   0  0  0  0  0  0  0  0  0  0  0  0
   -6.2967    1.8337    0.7737 C   0  0  0  0  0  0  0  0  0  0  0  0
   -7.1069    1.7079   -0.5172 C   0  0  0  0  0  0  0  0  0  0  0  0
    4.3634   -1.9338    1.4031 C   0  0  0  0  0  0  0  0  0  0  0  0
    6.5653    0.6085   -0.1948 C   0  0  0  0  0  0  0  0  0  0  0  0
    5.6883   -0.0189    0.8931 C   0  0  0  0  0  0  0  0  0  0  0  0
    7.0727    1.9789    0.2818 C   0  0  0  0  0  0  0  0  0  0  0  0
    5.7327    0.8002   -1.4698 C   0  0  0  0  0  0  0  0  0  0  0  0
    7.7704   -0.2997   -0.4734 C   0  0  0  0  0  0  0  0  0  0  0  0
   -0.6473   -1.0030   -2.2792 H   0  0  0  0  0  0  0  0  0  0  0  0
    0.6395   -1.1274    1.5029 H   0  0  0  0  0  0  0  0  0  0  0  0
   -2.2984   -2.6842   -1.5655 H   0  0  0  0  0  0  0  0  0  0  0  0
    0.8206    2.5070    1.0635 H   0  0  0  0  0  0  0  0  0  0  0  0
    0.3479    1.1825    2.1412 H   0  0  0  0  0  0  0  0  0  0  0  0
    2.0373    1.3773    1.6660 H   0  0  0  0  0  0  0  0  0  0  0  0
    1.4407    2.0440   -1.3666 H   0  0  0  0  0  0  0  0  0  0  0  0
    2.7260    0.9934   -0.7854 H   0  0  0  0  0  0  0  0  0  0  0  0
    1.5600    0.3798   -1.9610 H   0  0  0  0  0  0  0  0  0  0  0  0
   -4.2462   -1.5815   -1.6317 H   0  0  0  0  0  0  0  0  0  0  0  0
   -4.4460   -0.1824    1.7363 H   0  0  0  0  0  0  0  0  0  0  0  0
   -5.6962   -1.4012    1.9438 H   0  0  0  0  0  0  0  0  0  0  0  0
   -6.4711   -1.4955   -1.6961 H   0  0  0  0  0  0  0  0  0  0  0  0
   -7.4301   -1.0087   -0.3204 H   0  0  0  0  0  0  0  0  0  0  0  0
   -7.4478    0.2251    1.6590 H   0  0  0  0  0  0  0  0  0  0  0  0
   -6.2453    0.9248    2.7181 H   0  0  0  0  0  0  0  0  0  0  0  0
   -5.6438    0.9388   -1.9021 H   0  0  0  0  0  0  0  0  0  0  0  0
   -7.3157    0.6071   -2.3360 H   0  0  0  0  0  0  0  0  0  0  0  0
   -6.6852    2.7020    1.3207 H   0  0  0  0  0  0  0  0  0  0  0  0
   -5.2453    2.0496    0.5504 H   0  0  0  0  0  0  0  0  0  0  0  0
   -7.0907    2.6756   -1.0340 H   0  0  0  0  0  0  0  0  0  0  0  0
   -8.1575    1.5127   -0.2677 H   0  0  0  0  0  0  0  0  0  0  0  0
    4.7748   -1.8852    2.4176 H   0  0  0  0  0  0  0  0  0  0  0  0
    4.3461   -2.9909    1.1147 H   0  0  0  0  0  0  0  0  0  0  0  0
    7.6984    2.4579   -0.4795 H   0  0  0  0  0  0  0  0  0  0  0  0
    7.6705    1.8850    1.1959 H   0  0  0  0  0  0  0  0  0  0  0  0
    6.2398    2.6561    0.5046 H   0  0  0  0  0  0  0  0  0  0  0  0
    4.8893    1.4740   -1.2887 H   0  0  0  0  0  0  0  0  0  0  0  0
    5.3254   -0.1470   -1.8402 H   0  0  0  0  0  0  0  0  0  0  0  0
    6.3379    1.2359   -2.2728 H   0  0  0  0  0  0  0  0  0  0  0  0
    7.4586   -1.2720   -0.8714 H   0  0  0  0  0  0  0  0  0  0  0  0
    8.3388   -0.4917    0.4439 H   0  0  0  0  0  0  0  0  0  0  0  0
    8.4494    0.1539   -1.2039 H   0  0  0  0  0  0  0  0  0  0  0  0
  1 10  1  0  0  0  0
  1 11  1  0  0  0  0
  2 14  2  0  0  0  0
  3 17  1  0  0  0  0
  3 25  1  0  0  0  0
  4 17  2  0  0  0  0
  5 25  1  0  0  0  0
  5 27  1  0  0  0  0
  6 27  2  0  0  0  0
  7 10  1  0  0  0  0
  7 12  1  0  0  0  0
  7 14  1  0  0  0  0
  8 13  1  0  0  0  0
  8 18  2  0  0  0  0
  9 18  1  0  0  0  0
  9 19  1  0  0  0  0
  9 20  1  0  0  0  0
 10 13  1  1  0  0  0
 10 31  1  0  0  0  0
 11 12  1  0  0  0  0
 11 15  1  0  0  0  0
 11 16  1  0  0  0  0
 12 17  1  0  0  0  0
 12 32  1  1  0  0  0
 13 14  1  0  0  0  0
 13 33  1  6  0  0  0
 15 34  1  0  0  0  0
 15 35  1  0  0  0  0
 15 36  1  0  0  0  0
 16 37  1  0  0  0  0
 16 38  1  0  0  0  0
 16 39  1  0  0  0  0
 18 40  1  0  0  0  0
 19 21  1  0  0  0  0
 19 41  1  0  0  0  0
 19 42  1  0  0  0  0
 20 22  1  0  0  0  0
 20 43  1  0  0  0  0
 20 44  1  0  0  0  0
 21 23  1  0  0  0  0
 21 45  1  0  0  0  0
 21 46  1  0  0  0  0
 22 24  1  0  0  0  0
 22 47  1  0  0  0  0
 22 48  1  0  0  0  0
 23 24  1  0  0  0  0
 23 49  1  0  0  0  0
 23 50  1  0  0  0  0
 24 51  1  0  0  0  0
 24 52  1  0  0  0  0
 25 53  1  0  0  0  0
 25 54  1  0  0  0  0
 26 27  1  0  0  0  0
 26 28  1  0  0  0  0
 26 29  1  0  0  0  0
 26 30  1  0  0  0  0
 28 55  1  0  0  0  0
 28 56  1  0  0  0  0
 28 57  1  0  0  0  0
 29 58  1  0  0  0  0
 29 59  1  0  0  0  0
 29 60  1  0  0  0  0
 30 61  1  0  0  0  0
 30 62  1  0  0  0  0
 30 63  1  0  0  0  0
M  END
