DB01032
 OpenBabel07062211533D

 38 38  0  0  0  0  0  0  0  0999 V2000
   -0.1449    0.0828    1.8154 S   0  0  0  0  0  0  0  0  0  0  0  0
   -0.4548   -1.1919    2.4363 O   0  0  0  0  0  0  0  0  0  0  0  0
   -0.1274    1.2861    2.6266 O   0  0  0  0  0  0  0  0  0  0  0  0
    5.8965    0.7613   -0.8330 O   0  0  0  0  0  0  0  0  0  0  0  0
    5.7781   -1.4945   -1.0858 O   0  0  0  0  0  0  0  0  0  0  0  0
   -1.1746    0.3231    0.4532 N   0  0  0  0  0  0  0  0  0  0  0  0
   -0.9208    1.5061   -0.4079 C   0  0  0  0  0  0  0  0  0  0  0  0
   -1.5609   -0.8702   -0.3421 C   0  0  0  0  0  0  0  0  0  0  0  0
   -2.2176    1.9703   -1.0662 C   0  0  0  0  0  0  0  0  0  0  0  0
   -2.8274   -1.5014    0.2308 C   0  0  0  0  0  0  0  0  0  0  0  0
    1.4538   -0.0708    1.0692 C   0  0  0  0  0  0  0  0  0  0  0  0
   -3.2510    2.3779   -0.0272 C   0  0  0  0  0  0  0  0  0  0  0  0
   -3.2327   -2.7397   -0.5539 C   0  0  0  0  0  0  0  0  0  0  0  0
    1.9036   -1.3233    0.6941 C   0  0  0  0  0  0  0  0  0  0  0  0
    2.2186    1.0650    0.8775 C   0  0  0  0  0  0  0  0  0  0  0  0
    3.1629   -1.4445    0.1065 C   0  0  0  0  0  0  0  0  0  0  0  0
    3.4778    0.9440    0.2899 C   0  0  0  0  0  0  0  0  0  0  0  0
    3.9500   -0.3108   -0.0955 C   0  0  0  0  0  0  0  0  0  0  0  0
    5.2629   -0.4371   -0.7079 C   0  0  0  0  0  0  0  0  0  0  0  0
   -0.5188    2.3294    0.1923 H   0  0  0  0  0  0  0  0  0  0  0  0
   -0.1792    1.2583   -1.1758 H   0  0  0  0  0  0  0  0  0  0  0  0
   -1.7023   -0.6369   -1.4017 H   0  0  0  0  0  0  0  0  0  0  0  0
   -0.7476   -1.6030   -0.3269 H   0  0  0  0  0  0  0  0  0  0  0  0
   -1.9949    2.8377   -1.6992 H   0  0  0  0  0  0  0  0  0  0  0  0
   -2.6492    1.2119   -1.7257 H   0  0  0  0  0  0  0  0  0  0  0  0
   -2.6886   -1.7747    1.2817 H   0  0  0  0  0  0  0  0  0  0  0  0
   -3.6502   -0.7787    0.2011 H   0  0  0  0  0  0  0  0  0  0  0  0
   -3.5602    1.5389    0.6013 H   0  0  0  0  0  0  0  0  0  0  0  0
   -2.8614    3.1672    0.6241 H   0  0  0  0  0  0  0  0  0  0  0  0
   -4.1460    2.7668   -0.5240 H   0  0  0  0  0  0  0  0  0  0  0  0
   -3.4261   -2.4938   -1.6030 H   0  0  0  0  0  0  0  0  0  0  0  0
   -2.4470   -3.5011   -0.5177 H   0  0  0  0  0  0  0  0  0  0  0  0
   -4.1455   -3.1730   -0.1331 H   0  0  0  0  0  0  0  0  0  0  0  0
    1.3073   -2.2180    0.8428 H   0  0  0  0  0  0  0  0  0  0  0  0
    1.8677    2.0503    1.1675 H   0  0  0  0  0  0  0  0  0  0  0  0
    3.5126   -2.4309   -0.1867 H   0  0  0  0  0  0  0  0  0  0  0  0
    4.0571    1.8523    0.1503 H   0  0  0  0  0  0  0  0  0  0  0  0
    6.7805    0.6652   -1.2473 H   0  0  0  0  0  0  0  0  0  0  0  0
  1  2  2  0  0  0  0
  1  3  2  0  0  0  0
  1  6  1  0  0  0  0
  1 11  1  0  0  0  0
  4 19  1  0  0  0  0
  4 38  1  0  0  0  0
  5 19  2  0  0  0  0
  6  7  1  0  0  0  0
  6  8  1  0  0  0  0
  7  9  1  0  0  0  0
  7 20  1  0  0  0  0
  7 21  1  0  0  0  0
  8 10  1  0  0  0  0
  8 22  1  0  0  0  0
  8 23  1  0  0  0  0
  9 12  1  0  0  0  0
  9 24  1  0  0  0  0
  9 25  1  0  0  0  0
 10 13  1  0  0  0  0
 10 26  1  0  0  0  0
 10 27  1  0  0  0  0
 11 14  2  0  0  0  0
 11 15  1  0  0  0  0
 12 28  1  0  0  0  0
 12 29  1  0  0  0  0
 12 30  1  0  0  0  0
 13 31  1  0  0  0  0
 13 32  1  0  0  0  0
 13 33  1  0  0  0  0
 14 16  1  0  0  0  0
 14 34  1  0  0  0  0
 15 17  2  0  0  0  0
 15 35  1  0  0  0  0
 16 18  2  0  0  0  0
 16 36  1  0  0  0  0
 17 18  1  0  0  0  0
 17 37  1  0  0  0  0
 18 19  1  0  0  0  0
M  END
