DB01023
 OpenBabel07062211533D

 44 45  0  0  1  0  0  0  0  0999 V2000
    0.0404   -2.6772    2.0665 Cl  0  0  0  0  0  0  0  0  0  0  0  0
    1.4239   -4.9683    0.2884 Cl  0  0  0  0  0  0  0  0  0  0  0  0
    2.6161    0.5695    0.5516 O   0  0  0  0  0  0  0  0  0  0  0  0
   -3.5878   -0.6255    1.2896 O   0  0  0  0  0  0  0  0  0  0  0  0
    1.7189    1.1784    2.5970 O   0  0  0  0  0  0  0  0  0  0  0  0
   -3.1527   -1.6445   -0.7430 O   0  0  0  0  0  0  0  0  0  0  0  0
   -1.1774    2.4169   -0.5825 N   0  0  0  0  0  0  0  0  0  0  0  0
   -0.5405   -0.0861    0.5822 C   0  0  1  0  0  0  0  0  0  0  0  0
    0.3929    1.1289    0.6331 C   0  0  0  0  0  0  0  0  0  0  0  0
   -1.9124    0.2401   -0.0163 C   0  0  0  0  0  0  0  0  0  0  0  0
    0.1066   -1.1963   -0.1953 C   0  0  0  0  0  0  0  0  0  0  0  0
    0.0506    2.3002    0.0497 C   0  0  0  0  0  0  0  0  0  0  0  0
   -2.1605    1.4408   -0.5864 C   0  0  0  0  0  0  0  0  0  0  0  0
    1.6390    0.9704    1.4004 C   0  0  0  0  0  0  0  0  0  0  0  0
    0.9062    3.5375    0.0087 C   0  0  0  0  0  0  0  0  0  0  0  0
   -3.4517    1.8430   -1.2464 C   0  0  0  0  0  0  0  0  0  0  0  0
   -2.9490   -0.7978    0.1073 C   0  0  0  0  0  0  0  0  0  0  0  0
    0.4129   -2.4201    0.3918 C   0  0  0  0  0  0  0  0  0  0  0  0
    0.3951   -0.9650   -1.5370 C   0  0  0  0  0  0  0  0  0  0  0  0
    1.0138   -3.4223   -0.3700 C   0  0  0  0  0  0  0  0  0  0  0  0
    0.9960   -1.9671   -2.2986 C   0  0  0  0  0  0  0  0  0  0  0  0
    1.3053   -3.1958   -1.7152 C   0  0  0  0  0  0  0  0  0  0  0  0
    3.8990    0.3698    1.1538 C   0  0  0  0  0  0  0  0  0  0  0  0
   -4.6323   -1.5668    1.5578 C   0  0  0  0  0  0  0  0  0  0  0  0
    4.8798   -0.0731    0.0892 C   0  0  0  0  0  0  0  0  0  0  0  0
   -0.7356   -0.3387    1.6293 H   0  0  0  0  0  0  0  0  0  0  0  0
   -1.3980    3.3062   -1.0168 H   0  0  0  0  0  0  0  0  0  0  0  0
    0.3922    4.3686    0.5034 H   0  0  0  0  0  0  0  0  0  0  0  0
    1.1063    3.8241   -1.0293 H   0  0  0  0  0  0  0  0  0  0  0  0
    1.8721    3.4054    0.5044 H   0  0  0  0  0  0  0  0  0  0  0  0
   -3.8879    2.7045   -0.7294 H   0  0  0  0  0  0  0  0  0  0  0  0
   -4.1987    1.0441   -1.2448 H   0  0  0  0  0  0  0  0  0  0  0  0
   -3.2716    2.1216   -2.2903 H   0  0  0  0  0  0  0  0  0  0  0  0
    0.1678   -0.0197   -2.0214 H   0  0  0  0  0  0  0  0  0  0  0  0
    1.2234   -1.7908   -3.3459 H   0  0  0  0  0  0  0  0  0  0  0  0
    1.7736   -3.9652   -2.3241 H   0  0  0  0  0  0  0  0  0  0  0  0
    4.2406    1.3079    1.6054 H   0  0  0  0  0  0  0  0  0  0  0  0
    3.8218   -0.4006    1.9293 H   0  0  0  0  0  0  0  0  0  0  0  0
   -4.2255   -2.5819    1.5985 H   0  0  0  0  0  0  0  0  0  0  0  0
   -5.4136   -1.4932    0.7954 H   0  0  0  0  0  0  0  0  0  0  0  0
   -5.0671   -1.3238    2.5310 H   0  0  0  0  0  0  0  0  0  0  0  0
    5.8733   -0.2368    0.5160 H   0  0  0  0  0  0  0  0  0  0  0  0
    4.5406   -1.0004   -0.3843 H   0  0  0  0  0  0  0  0  0  0  0  0
    4.9542    0.6793   -0.7030 H   0  0  0  0  0  0  0  0  0  0  0  0
  1 18  1  0  0  0  0
  2 20  1  0  0  0  0
  3 14  1  0  0  0  0
  3 23  1  0  0  0  0
  4 17  1  0  0  0  0
  4 24  1  0  0  0  0
  5 14  2  0  0  0  0
  6 17  2  0  0  0  0
  7 12  1  0  0  0  0
  7 13  1  0  0  0  0
  7 27  1  0  0  0  0
  8  9  1  0  0  0  0
  8 10  1  0  0  0  0
  8 11  1  0  0  0  0
  8 26  1  1  0  0  0
  9 12  2  0  0  0  0
  9 14  1  0  0  0  0
 10 13  2  0  0  0  0
 10 17  1  0  0  0  0
 11 18  2  0  0  0  0
 11 19  1  0  0  0  0
 12 15  1  0  0  0  0
 13 16  1  0  0  0  0
 15 28  1  0  0  0  0
 15 29  1  0  0  0  0
 15 30  1  0  0  0  0
 16 31  1  0  0  0  0
 16 32  1  0  0  0  0
 16 33  1  0  0  0  0
 18 20  1  0  0  0  0
 19 21  2  0  0  0  0
 19 34  1  0  0  0  0
 20 22  2  0  0  0  0
 21 22  1  0  0  0  0
 21 35  1  0  0  0  0
 22 36  1  0  0  0  0
 23 25  1  0  0  0  0
 23 37  1  0  0  0  0
 23 38  1  0  0  0  0
 24 39  1  0  0  0  0
 24 40  1  0  0  0  0
 24 41  1  0  0  0  0
 25 42  1  0  0  0  0
 25 43  1  0  0  0  0
 25 44  1  0  0  0  0
M  END
