DB01551
 OpenBabel07062211533D

 45 49  0  0  1  0  0  0  0  0999 V2000
   -1.7075    1.2276   -1.5075 O   0  0  0  0  0  0  0  0  0  0  0  0
   -1.6118    2.7325    0.7414 O   0  0  0  0  0  0  0  0  0  0  0  0
   -4.0955   -0.2922   -0.7783 O   0  0  0  0  0  0  0  0  0  0  0  0
    2.8145   -1.1086   -0.4375 N   0  0  0  0  0  0  0  0  0  0  0  0
    0.5367    0.6637   -0.7975 C   0  0  1  0  0  0  0  0  0  0  0  0
    1.6779    0.9586    0.1776 C   0  0  2  0  0  0  0  0  0  0  0  0
   -0.3926    1.8190   -1.2156 C   0  0  2  0  0  0  0  0  0  0  0  0
    2.1867   -0.4141    0.7138 C   0  0  1  0  0  0  0  0  0  0  0  0
    1.1298   -0.1074   -2.0006 C   0  0  0  0  0  0  0  0  0  0  0  0
   -0.5064   -0.1791   -0.1597 C   0  0  0  0  0  0  0  0  0  0  0  0
    1.3010    1.9732    1.2591 C   0  0  0  0  0  0  0  0  0  0  0  0
   -0.5471    2.9661   -0.1825 C   0  0  2  0  0  0  0  0  0  0  0  0
    1.0653   -1.2302    1.4485 C   0  0  0  0  0  0  0  0  0  0  0  0
    0.7336    3.2415    0.6095 C   0  0  0  0  0  0  0  0  0  0  0  0
    1.9085   -1.3630   -1.5633 C   0  0  0  0  0  0  0  0  0  0  0  0
   -0.3041   -1.1157    0.8338 C   0  0  0  0  0  0  0  0  0  0  0  0
   -1.7507    0.1305   -0.6742 C   0  0  0  0  0  0  0  0  0  0  0  0
    3.5504   -2.3110   -0.0622 C   0  0  0  0  0  0  0  0  0  0  0  0
   -1.4249   -1.8288    1.2581 C   0  0  0  0  0  0  0  0  0  0  0  0
   -2.8663   -0.5721   -0.2818 C   0  0  0  0  0  0  0  0  0  0  0  0
   -2.6917   -1.5700    0.6887 C   0  0  0  0  0  0  0  0  0  0  0  0
   -5.1892   -1.0817   -0.3047 C   0  0  0  0  0  0  0  0  0  0  0  0
    2.4998    1.4305   -0.3841 H   0  0  0  0  0  0  0  0  0  0  0  0
   -0.0150    2.2612   -2.1468 H   0  0  0  0  0  0  0  0  0  0  0  0
    2.9831   -0.2139    1.4432 H   0  0  0  0  0  0  0  0  0  0  0  0
    1.8109    0.5585   -2.5477 H   0  0  0  0  0  0  0  0  0  0  0  0
    0.3510   -0.4060   -2.7143 H   0  0  0  0  0  0  0  0  0  0  0  0
    2.1960    2.2365    1.8358 H   0  0  0  0  0  0  0  0  0  0  0  0
    0.5858    1.5574    1.9757 H   0  0  0  0  0  0  0  0  0  0  0  0
   -0.8365    3.8744   -0.7232 H   0  0  0  0  0  0  0  0  0  0  0  0
    0.9915   -0.8401    2.4725 H   0  0  0  0  0  0  0  0  0  0  0  0
    1.3397   -2.2857    1.5420 H   0  0  0  0  0  0  0  0  0  0  0  0
    0.5287    3.9735    1.3998 H   0  0  0  0  0  0  0  0  0  0  0  0
    1.4884    3.6787   -0.0554 H   0  0  0  0  0  0  0  0  0  0  0  0
    1.2040   -2.1684   -1.3213 H   0  0  0  0  0  0  0  0  0  0  0  0
    2.4881   -1.7131   -2.4267 H   0  0  0  0  0  0  0  0  0  0  0  0
    2.8948   -3.1347    0.2374 H   0  0  0  0  0  0  0  0  0  0  0  0
    4.2457   -2.1037    0.7587 H   0  0  0  0  0  0  0  0  0  0  0  0
    4.1597   -2.6590   -0.9040 H   0  0  0  0  0  0  0  0  0  0  0  0
   -1.3345   -2.5787    2.0396 H   0  0  0  0  0  0  0  0  0  0  0  0
   -1.3842    1.9680    1.2945 H   0  0  0  0  0  0  0  0  0  0  0  0
   -3.5113   -2.1703    1.0725 H   0  0  0  0  0  0  0  0  0  0  0  0
   -5.3537   -0.9325    0.7677 H   0  0  0  0  0  0  0  0  0  0  0  0
   -5.0595   -2.1389   -0.5596 H   0  0  0  0  0  0  0  0  0  0  0  0
   -6.0888   -0.7324   -0.8215 H   0  0  0  0  0  0  0  0  0  0  0  0
  1  7  1  0  0  0  0
  1 17  1  0  0  0  0
  2 12  1  0  0  0  0
  2 41  1  0  0  0  0
  3 20  1  0  0  0  0
  3 22  1  0  0  0  0
  4  8  1  0  0  0  0
  4 15  1  0  0  0  0
  4 18  1  0  0  0  0
  5  6  1  1  0  0  0
  5  9  1  0  0  0  0
  5 10  1  0  0  0  0
  6  8  1  1  0  0  0
  6 11  1  0  0  0  0
  6 23  1  0  0  0  0
  7  5  1  1  0  0  0
  7 24  1  0  0  0  0
  8 13  1  0  0  0  0
  8 25  1  1  0  0  0
  9 15  1  0  0  0  0
  9 26  1  0  0  0  0
  9 27  1  0  0  0  0
 10 16  2  0  0  0  0
 10 17  1  0  0  0  0
 11 14  1  0  0  0  0
 11 28  1  0  0  0  0
 11 29  1  0  0  0  0
 12  7  1  6  0  0  0
 12 14  1  0  0  0  0
 12 30  1  0  0  0  0
 13 16  1  0  0  0  0
 13 31  1  0  0  0  0
 13 32  1  0  0  0  0
 14 33  1  0  0  0  0
 14 34  1  0  0  0  0
 15 35  1  0  0  0  0
 15 36  1  0  0  0  0
 16 19  1  0  0  0  0
 17 20  2  0  0  0  0
 18 37  1  0  0  0  0
 18 38  1  0  0  0  0
 18 39  1  0  0  0  0
 19 21  2  0  0  0  0
 19 40  1  0  0  0  0
 20 21  1  0  0  0  0
 21 42  1  0  0  0  0
 22 43  1  0  0  0  0
 22 44  1  0  0  0  0
 22 45  1  0  0  0  0
M  END
