DB01085
 OpenBabel07062211533D

 31 32  0  0  1  0  0  0  0  0999 V2000
    1.6990   -2.0127    1.3536 O   0  0  0  0  0  0  0  0  0  0  0  0
    3.4156   -0.6321    1.9843 O   0  0  0  0  0  0  0  0  0  0  0  0
   -2.8943    0.5410    0.0075 N   0  0  0  0  0  0  0  0  0  0  0  0
   -4.0597   -1.2932   -0.4510 N   0  0  0  0  0  0  0  0  0  0  0  0
    0.2546   -0.4245    0.4397 C   0  0  1  0  0  0  0  0  0  0  0  0
    1.6384    0.2068    0.5539 C   0  0  2  0  0  0  0  0  0  0  0  0
   -0.5828   -0.0279   -0.7632 C   0  0  0  0  0  0  0  0  0  0  0  0
    0.5619   -1.9058    0.4908 C   0  0  0  0  0  0  0  0  0  0  0  0
    2.3851    0.4266   -0.7536 C   0  0  0  0  0  0  0  0  0  0  0  0
    2.3664   -0.8189    1.3870 C   0  0  0  0  0  0  0  0  0  0  0  0
   -2.0370   -0.3421   -0.5469 C   0  0  1  0  0  0  0  0  0  0  0  0
    3.8116    0.8931   -0.5146 C   0  0  0  0  0  0  0  0  0  0  0  0
   -2.7499   -1.4604   -0.8253 C   0  0  0  0  0  0  0  0  0  0  0  0
   -4.1129   -0.0778    0.0472 C   0  0  0  0  0  0  0  0  0  0  0  0
   -2.6137    1.8777    0.4753 C   0  0  0  0  0  0  0  0  0  0  0  0
   -0.2809   -0.1678    1.3664 H   0  0  0  0  0  0  0  0  0  0  0  0
    1.5650    1.1420    1.1213 H   0  0  0  0  0  0  0  0  0  0  0  0
   -0.2361   -0.5389   -1.6703 H   0  0  0  0  0  0  0  0  0  0  0  0
   -0.4728    1.0450   -0.9606 H   0  0  0  0  0  0  0  0  0  0  0  0
   -0.2640   -2.4827    0.9176 H   0  0  0  0  0  0  0  0  0  0  0  0
    0.8261   -2.3326   -0.4827 H   0  0  0  0  0  0  0  0  0  0  0  0
    1.8673    1.1875   -1.3485 H   0  0  0  0  0  0  0  0  0  0  0  0
    2.4114   -0.4896   -1.3557 H   0  0  0  0  0  0  0  0  0  0  0  0
    3.8510    1.7218    0.1995 H   0  0  0  0  0  0  0  0  0  0  0  0
    4.4553    0.0839   -0.1586 H   0  0  0  0  0  0  0  0  0  0  0  0
    4.2449    1.2462   -1.4568 H   0  0  0  0  0  0  0  0  0  0  0  0
   -2.4089   -2.3824   -1.2729 H   0  0  0  0  0  0  0  0  0  0  0  0
   -4.9979    0.3999    0.4454 H   0  0  0  0  0  0  0  0  0  0  0  0
   -3.5021    2.2848    0.9652 H   0  0  0  0  0  0  0  0  0  0  0  0
   -1.7897    1.8361    1.1913 H   0  0  0  0  0  0  0  0  0  0  0  0
   -2.3509    2.4971   -0.3856 H   0  0  0  0  0  0  0  0  0  0  0  0
  1  8  1  0  0  0  0
  1 10  1  0  0  0  0
  2 10  2  0  0  0  0
  3 11  1  0  0  0  0
  3 14  2  0  0  0  0
  3 15  1  0  0  0  0
  4 13  2  0  0  0  0
  4 14  1  0  0  0  0
  5  6  1  6  0  0  0
  5  7  1  0  0  0  0
  5  8  1  0  0  0  0
  5 16  1  0  0  0  0
  6  9  1  0  0  0  0
  6 10  1  0  0  0  0
  6 17  1  1  0  0  0
  7 18  1  0  0  0  0
  7 19  1  0  0  0  0
  8 20  1  0  0  0  0
  8 21  1  0  0  0  0
  9 12  1  0  0  0  0
  9 22  1  0  0  0  0
  9 23  1  0  0  0  0
 11  7  1  1  0  0  0
 11 13  1  0  0  0  0
 12 24  1  0  0  0  0
 12 25  1  0  0  0  0
 12 26  1  0  0  0  0
 13 27  1  0  0  0  0
 14 28  1  0  0  0  0
 15 29  1  0  0  0  0
 15 30  1  0  0  0  0
 15 31  1  0  0  0  0
M  END
