DB01610
 OpenBabel07062211533D

 47 48  0  0  1  0  0  0  0  0999 V2000
   -0.8732    1.2346   -0.3262 O   0  0  0  0  0  0  0  0  0  0  0  0
    1.8934    1.3709    0.0887 O   0  0  0  0  0  0  0  0  0  0  0  0
   -1.1016    3.3604   -2.0919 O   0  0  0  0  0  0  0  0  0  0  0  0
    3.3768    1.4467    1.8509 O   0  0  0  0  0  0  0  0  0  0  0  0
   -4.7801   -3.9283   -0.7410 O   0  0  0  0  0  0  0  0  0  0  0  0
   -1.8764   -0.6970    0.4572 N   0  0  0  0  0  0  0  0  0  0  0  0
    5.1823   -0.0797    0.5082 N   0  0  0  0  0  0  0  0  0  0  0  0
   -4.2151   -0.0534    0.3313 N   0  0  0  0  0  0  0  0  0  0  0  0
   -2.1107   -2.8379   -0.1250 N   0  0  0  0  0  0  0  0  0  0  0  0
   -5.6865   -1.8383   -0.3138 N   0  0  0  0  0  0  0  0  0  0  0  0
   -6.4870    0.3301    0.1473 N   0  0  0  0  0  0  0  0  0  0  0  0
    3.1524   -1.1645   -0.4930 C   0  0  0  0  0  0  0  0  0  0  0  0
    3.8953    0.1480   -0.1510 C   0  0  1  0  0  0  0  0  0  0  0  0
   -0.2503    2.4860   -0.0267 C   0  0  1  0  0  0  0  0  0  0  0  0
    0.9977    2.2236    0.8086 C   0  0  0  0  0  0  0  0  0  0  0  0
    2.7452   -1.9188    0.7773 C   0  0  0  0  0  0  0  0  0  0  0  0
    3.9454   -2.0972   -1.4159 C   0  0  0  0  0  0  0  0  0  0  0  0
    3.0575    1.0589    0.7342 C   0  0  0  0  0  0  0  0  0  0  0  0
   -1.2240    0.5412    0.8597 C   0  0  0  0  0  0  0  0  0  0  0  0
    0.0946    3.1667   -1.3447 C   0  0  0  0  0  0  0  0  0  0  0  0
   -3.1872   -0.9013    0.2411 C   0  0  0  0  0  0  0  0  0  0  0  0
   -3.3250   -2.2112   -0.1145 C   0  0  0  0  0  0  0  0  0  0  0  0
   -1.2538   -1.8935    0.2254 C   0  0  0  0  0  0  0  0  0  0  0  0
   -4.6334   -2.7555   -0.4188 C   0  0  0  0  0  0  0  0  0  0  0  0
   -5.4697   -0.5839    0.0372 C   0  0  0  0  0  0  0  0  0  0  0  0
    2.2268   -0.9051   -1.0241 H   0  0  0  0  0  0  0  0  0  0  0  0
    4.0999    0.6976   -1.0780 H   0  0  0  0  0  0  0  0  0  0  0  0
   -0.9654    3.1079    0.5257 H   0  0  0  0  0  0  0  0  0  0  0  0
    0.7822    1.8042    1.7956 H   0  0  0  0  0  0  0  0  0  0  0  0
    1.5054    3.1816    0.9824 H   0  0  0  0  0  0  0  0  0  0  0  0
    2.1791   -2.8204    0.5175 H   0  0  0  0  0  0  0  0  0  0  0  0
    2.1044   -1.3126    1.4251 H   0  0  0  0  0  0  0  0  0  0  0  0
    3.6145   -2.2414    1.3593 H   0  0  0  0  0  0  0  0  0  0  0  0
    3.3396   -2.9633   -1.7033 H   0  0  0  0  0  0  0  0  0  0  0  0
    4.8539   -2.4699   -0.9315 H   0  0  0  0  0  0  0  0  0  0  0  0
    4.2371   -1.5741   -2.3326 H   0  0  0  0  0  0  0  0  0  0  0  0
   -0.3610    0.2225    1.4493 H   0  0  0  0  0  0  0  0  0  0  0  0
   -1.9210    1.1170    1.4774 H   0  0  0  0  0  0  0  0  0  0  0  0
    0.5601    4.1428   -1.1802 H   0  0  0  0  0  0  0  0  0  0  0  0
    0.7631    2.5557   -1.9598 H   0  0  0  0  0  0  0  0  0  0  0  0
    5.6436    0.8128    0.6805 H   0  0  0  0  0  0  0  0  0  0  0  0
    5.0404   -0.5096    1.4209 H   0  0  0  0  0  0  0  0  0  0  0  0
   -0.1857   -2.0227    0.3216 H   0  0  0  0  0  0  0  0  0  0  0  0
   -4.1166    0.9223    0.5918 H   0  0  0  0  0  0  0  0  0  0  0  0
   -1.5102    2.4871   -2.2196 H   0  0  0  0  0  0  0  0  0  0  0  0
   -7.4490    0.0694   -0.0400 H   0  0  0  0  0  0  0  0  0  0  0  0
   -6.3081    1.2911    0.4173 H   0  0  0  0  0  0  0  0  0  0  0  0
  1 14  1  0  0  0  0
  1 19  1  0  0  0  0
  2 15  1  0  0  0  0
  2 18  1  0  0  0  0
  3 20  1  0  0  0  0
  3 45  1  0  0  0  0
  4 18  2  0  0  0  0
  5 24  2  0  0  0  0
  6 19  1  0  0  0  0
  6 21  1  0  0  0  0
  6 23  2  0  0  0  0
  7 13  1  0  0  0  0
  7 41  1  0  0  0  0
  7 42  1  0  0  0  0
  8 21  2  0  0  0  0
  8 25  1  0  0  0  0
  8 44  1  0  0  0  0
  9 22  2  0  0  0  0
  9 23  1  0  0  0  0
 10 24  1  0  0  0  0
 10 25  2  0  0  0  0
 11 25  1  0  0  0  0
 11 46  1  0  0  0  0
 11 47  1  0  0  0  0
 12 13  1  0  0  0  0
 12 16  1  0  0  0  0
 12 17  1  0  0  0  0
 12 26  1  0  0  0  0
 13 18  1  0  0  0  0
 13 27  1  6  0  0  0
 14 15  1  0  0  0  0
 14 20  1  0  0  0  0
 14 28  1  1  0  0  0
 15 29  1  0  0  0  0
 15 30  1  0  0  0  0
 16 31  1  0  0  0  0
 16 32  1  0  0  0  0
 16 33  1  0  0  0  0
 17 34  1  0  0  0  0
 17 35  1  0  0  0  0
 17 36  1  0  0  0  0
 19 37  1  0  0  0  0
 19 38  1  0  0  0  0
 20 39  1  0  0  0  0
 20 40  1  0  0  0  0
 21 22  1  0  0  0  0
 22 24  1  0  0  0  0
 23 43  1  0  0  0  0
M  END
