DB01195
 OpenBabel07062211533D

 48 49  0  0  1  0  0  0  0  0999 V2000
    2.0495   -2.3956    0.0219 F   0  0  0  0  0  0  0  0  0  0  0  0
    1.9791   -4.1737   -1.2398 F   0  0  0  0  0  0  0  0  0  0  0  0
    1.7184   -4.3542    0.9225 F   0  0  0  0  0  0  0  0  0  0  0  0
   -6.1145    1.5373   -2.1120 F   0  0  0  0  0  0  0  0  0  0  0  0
   -5.8620    3.5387   -1.2821 F   0  0  0  0  0  0  0  0  0  0  0  0
   -7.1859    2.1046   -0.2990 F   0  0  0  0  0  0  0  0  0  0  0  0
    0.0874   -0.4287    2.5820 O   0  0  0  0  0  0  0  0  0  0  0  0
   -0.5701   -2.7637    0.8494 O   0  0  0  0  0  0  0  0  0  0  0  0
   -5.0637    0.3570    0.1656 O   0  0  0  0  0  0  0  0  0  0  0  0
    3.7647    1.7748    0.9943 N   0  0  0  0  0  0  0  0  0  0  0  0
    0.1309    1.0492    0.7935 N   0  0  0  0  0  0  0  0  0  0  0  0
    2.5581    1.0644    0.5522 C   0  0  2  0  0  0  0  0  0  0  0  0
    2.4609    1.0582   -0.9796 C   0  0  0  0  0  0  0  0  0  0  0  0
    3.7162    0.4619   -1.6106 C   0  0  0  0  0  0  0  0  0  0  0  0
    4.9648    1.1541   -1.0751 C   0  0  0  0  0  0  0  0  0  0  0  0
    4.9792    1.1655    0.4516 C   0  0  0  0  0  0  0  0  0  0  0  0
    1.3302    1.7365    1.1642 C   0  0  0  0  0  0  0  0  0  0  0  0
   -0.4049    0.0040    1.5433 C   0  0  0  0  0  0  0  0  0  0  0  0
   -1.6414   -0.6234    1.0097 C   0  0  0  0  0  0  0  0  0  0  0  0
   -1.6728   -1.9798    0.6858 C   0  0  0  0  0  0  0  0  0  0  0  0
   -2.7810    0.1618    0.8355 C   0  0  0  0  0  0  0  0  0  0  0  0
   -3.9520   -0.4092    0.3371 C   0  0  0  0  0  0  0  0  0  0  0  0
   -2.8437   -2.5509    0.1872 C   0  0  0  0  0  0  0  0  0  0  0  0
   -3.9832   -1.7656    0.0129 C   0  0  0  0  0  0  0  0  0  0  0  0
   -0.0493   -3.4002   -0.3154 C   0  0  0  0  0  0  0  0  0  0  0  0
   -4.8612    1.7373   -0.1326 C   0  0  0  0  0  0  0  0  0  0  0  0
    1.4367   -3.5870   -0.1519 C   0  0  0  0  0  0  0  0  0  0  0  0
   -6.0168    2.2370   -0.9603 C   0  0  0  0  0  0  0  0  0  0  0  0
    2.6053    0.0268    0.9098 H   0  0  0  0  0  0  0  0  0  0  0  0
    1.5958    0.4736   -1.3133 H   0  0  0  0  0  0  0  0  0  0  0  0
    2.3199    2.0805   -1.3545 H   0  0  0  0  0  0  0  0  0  0  0  0
    3.7660   -0.6101   -1.3836 H   0  0  0  0  0  0  0  0  0  0  0  0
    3.6712    0.5585   -2.7009 H   0  0  0  0  0  0  0  0  0  0  0  0
    5.0001    2.1844   -1.4510 H   0  0  0  0  0  0  0  0  0  0  0  0
    5.8598    0.6458   -1.4511 H   0  0  0  0  0  0  0  0  0  0  0  0
    5.0939    0.1454    0.8380 H   0  0  0  0  0  0  0  0  0  0  0  0
    5.8470    1.7379    0.7974 H   0  0  0  0  0  0  0  0  0  0  0  0
    3.8114    1.7676    2.0129 H   0  0  0  0  0  0  0  0  0  0  0  0
    1.2318    2.7723    0.8192 H   0  0  0  0  0  0  0  0  0  0  0  0
    1.4060    1.7552    2.2579 H   0  0  0  0  0  0  0  0  0  0  0  0
   -0.3383    1.3350   -0.0613 H   0  0  0  0  0  0  0  0  0  0  0  0
   -2.7393    1.2078    1.1270 H   0  0  0  0  0  0  0  0  0  0  0  0
   -2.8865   -3.6076   -0.0616 H   0  0  0  0  0  0  0  0  0  0  0  0
   -4.8931   -2.2162   -0.3743 H   0  0  0  0  0  0  0  0  0  0  0  0
   -0.5357   -4.3737   -0.4379 H   0  0  0  0  0  0  0  0  0  0  0  0
   -0.2395   -2.7956   -1.2109 H   0  0  0  0  0  0  0  0  0  0  0  0
   -4.8035    2.3038    0.8030 H   0  0  0  0  0  0  0  0  0  0  0  0
   -3.9458    1.8983   -0.7157 H   0  0  0  0  0  0  0  0  0  0  0  0
  1 27  1  0  0  0  0
  2 27  1  0  0  0  0
  3 27  1  0  0  0  0
  4 28  1  0  0  0  0
  5 28  1  0  0  0  0
  6 28  1  0  0  0  0
  7 18  2  0  0  0  0
  8 20  1  0  0  0  0
  8 25  1  0  0  0  0
  9 22  1  0  0  0  0
  9 26  1  0  0  0  0
 10 12  1  0  0  0  0
 10 16  1  0  0  0  0
 10 38  1  0  0  0  0
 11 17  1  0  0  0  0
 11 18  1  0  0  0  0
 11 41  1  0  0  0  0
 12 13  1  0  0  0  0
 12 17  1  0  0  0  0
 12 29  1  1  0  0  0
 13 14  1  0  0  0  0
 13 30  1  0  0  0  0
 13 31  1  0  0  0  0
 14 15  1  0  0  0  0
 14 32  1  0  0  0  0
 14 33  1  0  0  0  0
 15 16  1  0  0  0  0
 15 34  1  0  0  0  0
 15 35  1  0  0  0  0
 16 36  1  0  0  0  0
 16 37  1  0  0  0  0
 17 39  1  0  0  0  0
 17 40  1  0  0  0  0
 18 19  1  0  0  0  0
 19 20  2  0  0  0  0
 19 21  1  0  0  0  0
 20 23  1  0  0  0  0
 21 22  2  0  0  0  0
 21 42  1  0  0  0  0
 22 24  1  0  0  0  0
 23 24  2  0  0  0  0
 23 43  1  0  0  0  0
 24 44  1  0  0  0  0
 25 27  1  0  0  0  0
 25 45  1  0  0  0  0
 25 46  1  0  0  0  0
 26 28  1  0  0  0  0
 26 47  1  0  0  0  0
 26 48  1  0  0  0  0
M  END
