DB01421
 OpenBabel07062211533D

 87 90  0  0  1  0  0  0  0  0999 V2000
    0.7672    1.4921    0.4293 O   0  0  0  0  0  0  0  0  0  0  0  0
    3.0571   -0.1381    0.8685 O   0  0  0  0  0  0  0  0  0  0  0  0
    0.1240    1.2661    2.6814 O   0  0  0  0  0  0  0  0  0  0  0  0
   -3.2527    0.4710    1.7674 O   0  0  0  0  0  0  0  0  0  0  0  0
    1.4011    4.3130    0.2035 O   0  0  0  0  0  0  0  0  0  0  0  0
    3.3041   -1.7410   -0.8290 O   0  0  0  0  0  0  0  0  0  0  0  0
   -3.5486   -0.3115   -0.4312 O   0  0  0  0  0  0  0  0  0  0  0  0
   -2.1855    2.9999    1.8467 O   0  0  0  0  0  0  0  0  0  0  0  0
    0.6835   -3.7201    0.6295 O   0  0  0  0  0  0  0  0  0  0  0  0
    4.0834   -4.5820   -0.2612 O   0  0  0  0  0  0  0  0  0  0  0  0
   -6.2591    1.9588   -0.8904 O   0  0  0  0  0  0  0  0  0  0  0  0
   -0.0368   -0.8918    4.4909 O   0  0  0  0  0  0  0  0  0  0  0  0
   -5.9953   -1.6519   -1.3471 O   0  0  0  0  0  0  0  0  0  0  0  0
    1.7325   -1.5321   -3.0869 O   0  0  0  0  0  0  0  0  0  0  0  0
    5.2739    0.3775   -0.9336 N   0  0  0  0  0  0  0  0  0  0  0  0
    3.5580    4.8973   -1.6286 N   0  0  0  0  0  0  0  0  0  0  0  0
    3.9506   -2.5922    1.9259 N   0  0  0  0  0  0  0  0  0  0  0  0
   -5.7518   -0.8068    1.4833 N   0  0  0  0  0  0  0  0  0  0  0  0
   -2.0918   -0.8852   -2.7479 N   0  0  0  0  0  0  0  0  0  0  0  0
    2.0972    2.0199    0.4201 C   0  0  1  0  0  0  0  0  0  0  0  0
    3.0277    0.9173   -0.0969 C   0  0  1  0  0  0  0  0  0  0  0  0
    4.4535    1.4325   -0.3333 C   0  0  2  0  0  0  0  0  0  0  0  0
    2.1290    3.2755   -0.4590 C   0  0  2  0  0  0  0  0  0  0  0  0
    3.5630    3.7694   -0.6925 C   0  0  1  0  0  0  0  0  0  0  0  0
    4.4542    2.6570   -1.2522 C   0  0  0  0  0  0  0  0  0  0  0  0
   -0.0028    2.0576    1.4834 C   0  0  2  0  0  0  0  0  0  0  0  0
   -1.8630    0.6296    1.5761 C   0  0  1  0  0  0  0  0  0  0  0  0
   -1.4753    2.0158    1.1017 C   0  0  1  0  0  0  0  0  0  0  0  0
   -1.0922    0.5244    2.8819 C   0  0  1  0  0  0  0  0  0  0  0  0
    2.5506   -1.3543    0.3189 C   0  0  1  0  0  0  0  0  0  0  0  0
    2.5901   -2.4482    1.3966 C   0  0  1  0  0  0  0  0  0  0  0  0
   -3.9788    0.6322    0.5510 C   0  0  1  0  0  0  0  0  0  0  0  0
    2.0971   -3.7835    0.8176 C   0  0  2  0  0  0  0  0  0  0  0  0
   -5.4840    0.4788    0.8304 C   0  0  1  0  0  0  0  0  0  0  0  0
    2.7554   -4.1213   -0.5257 C   0  0  1  0  0  0  0  0  0  0  0  0
    2.8379   -2.9241   -1.4891 C   0  0  1  0  0  0  0  0  0  0  0  0
   -6.2827    0.5904   -0.4788 C   0  0  2  0  0  0  0  0  0  0  0  0
   -0.7612   -0.9055    3.2716 C   0  0  0  0  0  0  0  0  0  0  0  0
   -5.6948   -0.2811   -1.5985 C   0  0  1  0  0  0  0  0  0  0  0  0
   -4.1714   -0.0980   -1.7041 C   0  0  2  0  0  0  0  0  0  0  0  0
    1.5388   -2.6547   -2.2463 C   0  0  0  0  0  0  0  0  0  0  0  0
   -3.5345   -1.0700   -2.6911 C   0  0  0  0  0  0  0  0  0  0  0  0
    2.3952    2.2621    1.4507 H   0  0  0  0  0  0  0  0  0  0  0  0
    2.6097    0.5659   -1.0524 H   0  0  0  0  0  0  0  0  0  0  0  0
    4.9069    1.6958    0.6309 H   0  0  0  0  0  0  0  0  0  0  0  0
    1.6153    3.0799   -1.4084 H   0  0  0  0  0  0  0  0  0  0  0  0
    3.9859    4.1294    0.2544 H   0  0  0  0  0  0  0  0  0  0  0  0
    5.4806    3.0294   -1.3713 H   0  0  0  0  0  0  0  0  0  0  0  0
    4.1051    2.3702   -2.2546 H   0  0  0  0  0  0  0  0  0  0  0  0
    0.2973    3.0727    1.7492 H   0  0  0  0  0  0  0  0  0  0  0  0
   -1.4834   -0.1254    0.8741 H   0  0  0  0  0  0  0  0  0  0  0  0
   -1.6514    2.1794    0.0342 H   0  0  0  0  0  0  0  0  0  0  0  0
   -1.6314    1.0068    3.7070 H   0  0  0  0  0  0  0  0  0  0  0  0
    1.5073   -1.1715    0.0349 H   0  0  0  0  0  0  0  0  0  0  0  0
    1.9541   -2.1383    2.2321 H   0  0  0  0  0  0  0  0  0  0  0  0
   -3.8138    1.6468    0.1693 H   0  0  0  0  0  0  0  0  0  0  0  0
    2.2843   -4.5934    1.5340 H   0  0  0  0  0  0  0  0  0  0  0  0
    5.3085   -0.4260   -0.3074 H   0  0  0  0  0  0  0  0  0  0  0  0
    6.2335    0.7054   -1.0352 H   0  0  0  0  0  0  0  0  0  0  0  0
   -5.7877    1.2725    1.5246 H   0  0  0  0  0  0  0  0  0  0  0  0
    4.5044    5.2607   -1.7327 H   0  0  0  0  0  0  0  0  0  0  0  0
    2.9978    5.6568   -1.2434 H   0  0  0  0  0  0  0  0  0  0  0  0
    2.2210   -4.9485   -1.0078 H   0  0  0  0  0  0  0  0  0  0  0  0
    3.6092   -3.1313   -2.2417 H   0  0  0  0  0  0  0  0  0  0  0  0
   -7.3318    0.3272   -0.2961 H   0  0  0  0  0  0  0  0  0  0  0  0
    1.8840    4.5496    1.0139 H   0  0  0  0  0  0  0  0  0  0  0  0
   -1.6722   -1.4958    3.4093 H   0  0  0  0  0  0  0  0  0  0  0  0
   -0.1368   -1.3798    2.5113 H   0  0  0  0  0  0  0  0  0  0  0  0
   -6.1470   -0.0181   -2.5622 H   0  0  0  0  0  0  0  0  0  0  0  0
   -3.9496    0.9288   -2.0266 H   0  0  0  0  0  0  0  0  0  0  0  0
   -1.8724    3.8712    1.5494 H   0  0  0  0  0  0  0  0  0  0  0  0
    4.2559   -1.7055    2.3254 H   0  0  0  0  0  0  0  0  0  0  0  0
    3.9514   -3.2687    2.6880 H   0  0  0  0  0  0  0  0  0  0  0  0
    1.2659   -3.5166   -2.8636 H   0  0  0  0  0  0  0  0  0  0  0  0
    0.7036   -2.4271   -1.5802 H   0  0  0  0  0  0  0  0  0  0  0  0
   -3.7153   -2.1054   -2.3829 H   0  0  0  0  0  0  0  0  0  0  0  0
   -3.9636   -0.9350   -3.6899 H   0  0  0  0  0  0  0  0  0  0  0  0
   -6.7398   -0.8683    1.7253 H   0  0  0  0  0  0  0  0  0  0  0  0
   -5.2351   -0.8570    2.3604 H   0  0  0  0  0  0  0  0  0  0  0  0
    0.2789   -3.5602    1.4990 H   0  0  0  0  0  0  0  0  0  0  0  0
    4.4690   -4.8683   -1.1068 H   0  0  0  0  0  0  0  0  0  0  0  0
   -6.7909    2.0296   -1.7014 H   0  0  0  0  0  0  0  0  0  0  0  0
   -6.9632   -1.7374   -1.3089 H   0  0  0  0  0  0  0  0  0  0  0  0
    0.1696   -1.8162    4.7111 H   0  0  0  0  0  0  0  0  0  0  0  0
   -1.8776    0.0625   -3.0556 H   0  0  0  0  0  0  0  0  0  0  0  0
   -1.6962   -1.5100   -3.4492 H   0  0  0  0  0  0  0  0  0  0  0  0
    0.8975   -1.3813   -3.5619 H   0  0  0  0  0  0  0  0  0  0  0  0
  1 20  1  0  0  0  0
  1 26  1  0  0  0  0
  2 21  1  0  0  0  0
  2 30  1  0  0  0  0
  3 26  1  0  0  0  0
  3 29  1  0  0  0  0
  4 27  1  0  0  0  0
  4 32  1  0  0  0  0
  5 23  1  0  0  0  0
  5 66  1  0  0  0  0
  6 30  1  0  0  0  0
  6 36  1  0  0  0  0
  7 32  1  0  0  0  0
  7 40  1  0  0  0  0
  8 28  1  0  0  0  0
  8 71  1  0  0  0  0
  9 33  1  0  0  0  0
  9 80  1  0  0  0  0
 10 35  1  0  0  0  0
 10 81  1  0  0  0  0
 11 37  1  0  0  0  0
 11 82  1  0  0  0  0
 12 38  1  0  0  0  0
 12 84  1  0  0  0  0
 13 39  1  0  0  0  0
 13 83  1  0  0  0  0
 14 41  1  0  0  0  0
 14 87  1  0  0  0  0
 15 22  1  0  0  0  0
 15 58  1  0  0  0  0
 15 59  1  0  0  0  0
 16 24  1  0  0  0  0
 16 61  1  0  0  0  0
 16 62  1  0  0  0  0
 17 31  1  0  0  0  0
 17 72  1  0  0  0  0
 17 73  1  0  0  0  0
 18 34  1  0  0  0  0
 18 78  1  0  0  0  0
 18 79  1  0  0  0  0
 19 42  1  0  0  0  0
 19 85  1  0  0  0  0
 19 86  1  0  0  0  0
 20 21  1  6  0  0  0
 20 43  1  0  0  0  0
 21 22  1  6  0  0  0
 21 44  1  0  0  0  0
 22 25  1  0  0  0  0
 22 45  1  1  0  0  0
 23 20  1  1  0  0  0
 23 46  1  0  0  0  0
 24 23  1  1  0  0  0
 24 25  1  0  0  0  0
 24 47  1  0  0  0  0
 25 48  1  0  0  0  0
 25 49  1  0  0  0  0
 26 28  1  6  0  0  0
 26 50  1  0  0  0  0
 27 28  1  6  0  0  0
 27 51  1  0  0  0  0
 28 52  1  6  0  0  0
 29 27  1  6  0  0  0
 29 38  1  0  0  0  0
 29 53  1  0  0  0  0
 30 31  1  1  0  0  0
 30 54  1  0  0  0  0
 31 33  1  6  0  0  0
 31 55  1  0  0  0  0
 32 34  1  1  0  0  0
 32 56  1  0  0  0  0
 33 35  1  6  0  0  0
 33 57  1  0  0  0  0
 34 37  1  6  0  0  0
 34 60  1  0  0  0  0
 35 36  1  6  0  0  0
 35 63  1  0  0  0  0
 36 41  1  0  0  0  0
 36 64  1  6  0  0  0
 37 39  1  6  0  0  0
 37 65  1  0  0  0  0
 38 67  1  0  0  0  0
 38 68  1  0  0  0  0
 39 40  1  6  0  0  0
 39 69  1  0  0  0  0
 40 42  1  0  0  0  0
 40 70  1  6  0  0  0
 41 74  1  0  0  0  0
 41 75  1  0  0  0  0
 42 76  1  0  0  0  0
 42 77  1  0  0  0  0
M  END
