DB01077
 OpenBabel07062211533D

 19 18  0  0  0  0  0  0  0  0999 V2000
    1.3220   -0.6566   -0.0388 P   0  0  0  0  0  0  0  0  0  0  0  0
   -1.8398   -0.2094    0.1095 P   0  0  0  0  0  0  0  0  0  0  0  0
   -0.0654    0.4102    1.8496 O   0  0  0  0  0  0  0  0  0  0  0  0
    2.5761    0.1854    0.5360 O   0  0  0  0  0  0  0  0  0  0  0  0
    1.4470   -0.4621   -1.6391 O   0  0  0  0  0  0  0  0  0  0  0  0
   -1.8225   -1.7641    0.5498 O   0  0  0  0  0  0  0  0  0  0  0  0
   -1.8995   -0.2720   -1.5039 O   0  0  0  0  0  0  0  0  0  0  0  0
    1.2476   -2.0807    0.4263 O   0  0  0  0  0  0  0  0  0  0  0  0
   -2.8878    0.6325    0.7746 O   0  0  0  0  0  0  0  0  0  0  0  0
   -0.1265    0.3505    0.4242 C   0  0  0  0  0  0  0  0  0  0  0  0
    0.0456    1.7806   -0.0944 C   0  0  0  0  0  0  0  0  0  0  0  0
    0.9951    2.2150    0.2332 H   0  0  0  0  0  0  0  0  0  0  0  0
   -0.7474    2.4313    0.2893 H   0  0  0  0  0  0  0  0  0  0  0  0
    0.0098    1.8087   -1.1870 H   0  0  0  0  0  0  0  0  0  0  0  0
   -0.1673   -0.4979    2.1817 H   0  0  0  0  0  0  0  0  0  0  0  0
    3.4792   -0.1865    0.4456 H   0  0  0  0  0  0  0  0  0  0  0  0
    2.1449   -0.9522   -2.1236 H   0  0  0  0  0  0  0  0  0  0  0  0
   -0.9670   -2.2173    0.7061 H   0  0  0  0  0  0  0  0  0  0  0  0
   -2.7441   -0.5152   -1.9392 H   0  0  0  0  0  0  0  0  0  0  0  0
  1  4  1  0  0  0  0
  1  5  1  0  0  0  0
  1  8  2  0  0  0  0
  1 10  1  0  0  0  0
  2  6  1  0  0  0  0
  2  7  1  0  0  0  0
  2  9  2  0  0  0  0
  2 10  1  0  0  0  0
  3 10  1  0  0  0  0
  3 15  1  0  0  0  0
  4 16  1  0  0  0  0
  5 17  1  0  0  0  0
  6 18  1  0  0  0  0
  7 19  1  0  0  0  0
 10 11  1  0  0  0  0
 11 12  1  0  0  0  0
 11 13  1  0  0  0  0
 11 14  1  0  0  0  0
M  END
