DB01064
 OpenBabel07062211533D

 32 32  0  0  1  0  0  0  0  0999 V2000
    0.0305    0.5913   -2.1295 O   0  0  0  0  0  0  0  0  0  0  0  0
    4.8754    1.4234    0.7625 O   0  0  0  0  0  0  0  0  0  0  0  0
    5.3734   -1.2956    0.4765 O   0  0  0  0  0  0  0  0  0  0  0  0
   -2.1298    0.6645   -0.2278 N   0  0  0  0  0  0  0  0  0  0  0  0
    0.2739    0.7936   -0.7380 C   0  0  1  0  0  0  0  0  0  0  0  0
   -0.8212    0.1186    0.0969 C   0  0  0  0  0  0  0  0  0  0  0  0
   -3.1725    0.0179    0.5675 C   0  0  0  0  0  0  0  0  0  0  0  0
    1.6421    0.2364   -0.4115 C   0  0  0  0  0  0  0  0  0  0  0  0
   -3.1874   -1.4843    0.2995 C   0  0  0  0  0  0  0  0  0  0  0  0
   -4.5236    0.6462    0.2406 C   0  0  0  0  0  0  0  0  0  0  0  0
    2.6342    1.0959    0.0281 C   0  0  0  0  0  0  0  0  0  0  0  0
    1.8725   -1.1203   -0.5601 C   0  0  0  0  0  0  0  0  0  0  0  0
    3.8958    0.5824    0.3286 C   0  0  0  0  0  0  0  0  0  0  0  0
    3.1340   -1.6338   -0.2597 C   0  0  0  0  0  0  0  0  0  0  0  0
    4.1456   -0.7824    0.1848 C   0  0  0  0  0  0  0  0  0  0  0  0
    0.2572    1.8765   -0.5618 H   0  0  0  0  0  0  0  0  0  0  0  0
   -0.6021    0.2438    1.1648 H   0  0  0  0  0  0  0  0  0  0  0  0
   -0.8017   -0.9490   -0.1349 H   0  0  0  0  0  0  0  0  0  0  0  0
   -2.9824    0.1855    1.6355 H   0  0  0  0  0  0  0  0  0  0  0  0
   -2.1369    1.6692   -0.0542 H   0  0  0  0  0  0  0  0  0  0  0  0
   -4.0982   -1.9342    0.7123 H   0  0  0  0  0  0  0  0  0  0  0  0
   -3.1752   -1.7081   -0.7734 H   0  0  0  0  0  0  0  0  0  0  0  0
   -2.3514   -2.0041    0.7783 H   0  0  0  0  0  0  0  0  0  0  0  0
   -4.5192    1.7218    0.4497 H   0  0  0  0  0  0  0  0  0  0  0  0
   -5.3176    0.1958    0.8460 H   0  0  0  0  0  0  0  0  0  0  0  0
   -4.7859    0.5073   -0.8143 H   0  0  0  0  0  0  0  0  0  0  0  0
    2.4381    2.1588    0.1398 H   0  0  0  0  0  0  0  0  0  0  0  0
    1.1053   -1.7981   -0.9214 H   0  0  0  0  0  0  0  0  0  0  0  0
   -0.8666    0.9163   -2.3173 H   0  0  0  0  0  0  0  0  0  0  0  0
    3.3236   -2.6972   -0.3774 H   0  0  0  0  0  0  0  0  0  0  0  0
    4.5222    2.3288    0.8012 H   0  0  0  0  0  0  0  0  0  0  0  0
    5.9479   -0.5669    0.7688 H   0  0  0  0  0  0  0  0  0  0  0  0
  1  5  1  0  0  0  0
  1 29  1  0  0  0  0
  2 13  1  0  0  0  0
  2 31  1  0  0  0  0
  3 15  1  0  0  0  0
  3 32  1  0  0  0  0
  4  6  1  0  0  0  0
  4  7  1  0  0  0  0
  4 20  1  0  0  0  0
  5  6  1  0  0  0  0
  5  8  1  0  0  0  0
  5 16  1  1  0  0  0
  6 17  1  0  0  0  0
  6 18  1  0  0  0  0
  7  9  1  0  0  0  0
  7 10  1  0  0  0  0
  7 19  1  0  0  0  0
  8 11  2  0  0  0  0
  8 12  1  0  0  0  0
  9 21  1  0  0  0  0
  9 22  1  0  0  0  0
  9 23  1  0  0  0  0
 10 24  1  0  0  0  0
 10 25  1  0  0  0  0
 10 26  1  0  0  0  0
 11 13  1  0  0  0  0
 11 27  1  0  0  0  0
 12 14  2  0  0  0  0
 12 28  1  0  0  0  0
 13 15  2  0  0  0  0
 14 15  1  0  0  0  0
 14 30  1  0  0  0  0
M  END
