DB01142
 OpenBabel07062211533D

 42 44  0  0  0  0  0  0  0  0999 V2000
   -3.4533   -0.6963    1.1633 O   0  0  0  0  0  0  0  0  0  0  0  0
    3.8605    0.4449    0.5470 N   0  0  0  0  0  0  0  0  0  0  0  0
   -0.9507    0.2486   -0.3451 C   0  0  0  0  0  0  0  0  0  0  0  0
   -0.8504   -1.2282   -0.3896 C   0  0  0  0  0  0  0  0  0  0  0  0
   -2.2455    0.9815   -0.2341 C   0  0  0  0  0  0  0  0  0  0  0  0
   -1.4886   -1.9760    0.6132 C   0  0  0  0  0  0  0  0  0  0  0  0
    1.5555    0.2712   -0.2682 C   0  0  0  0  0  0  0  0  0  0  0  0
    0.2122    0.9275   -0.2878 C   0  0  0  0  0  0  0  0  0  0  0  0
    2.5615    1.1082    0.5207 C   0  0  0  0  0  0  0  0  0  0  0  0
   -2.2547   -1.2597    1.6896 C   0  0  0  0  0  0  0  0  0  0  0  0
   -3.3646    0.4823    0.4645 C   0  0  0  0  0  0  0  0  0  0  0  0
   -0.1547   -1.8916   -1.4113 C   0  0  0  0  0  0  0  0  0  0  0  0
   -1.4191   -3.3747    0.5858 C   0  0  0  0  0  0  0  0  0  0  0  0
   -2.3991    2.1987   -0.9331 C   0  0  0  0  0  0  0  0  0  0  0  0
   -4.5766    1.1944    0.4534 C   0  0  0  0  0  0  0  0  0  0  0  0
   -0.0888   -3.2850   -1.4274 C   0  0  0  0  0  0  0  0  0  0  0  0
   -0.7192   -4.0252   -0.4300 C   0  0  0  0  0  0  0  0  0  0  0  0
   -3.6036    2.9053   -0.9222 C   0  0  0  0  0  0  0  0  0  0  0  0
   -4.6938    2.4027   -0.2273 C   0  0  0  0  0  0  0  0  0  0  0  0
    4.8197    1.2223    1.3333 C   0  0  0  0  0  0  0  0  0  0  0  0
    4.3634    0.2432   -0.8128 C   0  0  0  0  0  0  0  0  0  0  0  0
    1.8681    0.1903   -1.3143 H   0  0  0  0  0  0  0  0  0  0  0  0
    1.5434   -0.7253    0.1848 H   0  0  0  0  0  0  0  0  0  0  0  0
    0.2127    2.0132   -0.2223 H   0  0  0  0  0  0  0  0  0  0  0  0
    2.6416    2.1150    0.0878 H   0  0  0  0  0  0  0  0  0  0  0  0
    2.1923    1.2282    1.5479 H   0  0  0  0  0  0  0  0  0  0  0  0
   -2.5555   -1.9702    2.4685 H   0  0  0  0  0  0  0  0  0  0  0  0
   -1.6432   -0.5043    2.2008 H   0  0  0  0  0  0  0  0  0  0  0  0
    0.3164   -1.3409   -2.2216 H   0  0  0  0  0  0  0  0  0  0  0  0
   -1.9118   -3.9666    1.3528 H   0  0  0  0  0  0  0  0  0  0  0  0
   -1.5833    2.6125   -1.5233 H   0  0  0  0  0  0  0  0  0  0  0  0
   -5.4424    0.8048    0.9850 H   0  0  0  0  0  0  0  0  0  0  0  0
    0.4470   -3.7932   -2.2239 H   0  0  0  0  0  0  0  0  0  0  0  0
   -0.6700   -5.1101   -0.4459 H   0  0  0  0  0  0  0  0  0  0  0  0
   -3.6893    3.8399   -1.4686 H   0  0  0  0  0  0  0  0  0  0  0  0
   -5.6356    2.9428   -0.2220 H   0  0  0  0  0  0  0  0  0  0  0  0
    5.0009    2.2137    0.9024 H   0  0  0  0  0  0  0  0  0  0  0  0
    5.7780    0.6954    1.4035 H   0  0  0  0  0  0  0  0  0  0  0  0
    4.4599    1.3525    2.3601 H   0  0  0  0  0  0  0  0  0  0  0  0
    5.4041   -0.1030   -0.7860 H   0  0  0  0  0  0  0  0  0  0  0  0
    4.3364    1.1607   -1.4117 H   0  0  0  0  0  0  0  0  0  0  0  0
    3.8203   -0.5497   -1.3363 H   0  0  0  0  0  0  0  0  0  0  0  0
  1 10  1  0  0  0  0
  1 11  1  0  0  0  0
  2  9  1  0  0  0  0
  2 20  1  0  0  0  0
  2 21  1  0  0  0  0
  3  4  1  0  0  0  0
  3  5  1  0  0  0  0
  3  8  2  0  0  0  0
  4  6  2  0  0  0  0
  4 12  1  0  0  0  0
  5 11  2  0  0  0  0
  5 14  1  0  0  0  0
  6 10  1  0  0  0  0
  6 13  1  0  0  0  0
  7  8  1  0  0  0  0
  7  9  1  0  0  0  0
  7 22  1  0  0  0  0
  7 23  1  0  0  0  0
  8 24  1  0  0  0  0
  9 25  1  0  0  0  0
  9 26  1  0  0  0  0
 10 27  1  0  0  0  0
 10 28  1  0  0  0  0
 11 15  1  0  0  0  0
 12 16  2  0  0  0  0
 12 29  1  0  0  0  0
 13 17  2  0  0  0  0
 13 30  1  0  0  0  0
 14 18  2  0  0  0  0
 14 31  1  0  0  0  0
 15 19  2  0  0  0  0
 15 32  1  0  0  0  0
 16 17  1  0  0  0  0
 16 33  1  0  0  0  0
 17 34  1  0  0  0  0
 18 19  1  0  0  0  0
 18 35  1  0  0  0  0
 19 36  1  0  0  0  0
 20 37  1  0  0  0  0
 20 38  1  0  0  0  0
 20 39  1  0  0  0  0
 21 40  1  0  0  0  0
 21 41  1  0  0  0  0
 21 42  1  0  0  0  0
M  END
