DB01202
 OpenBabel07062211533D

 26 26  0  0  1  0  0  0  0  0999 V2000
    0.9881    0.1219    2.4224 O   0  0  0  0  0  0  0  0  0  0  0  0
   -2.0884   -2.1498   -1.1144 O   0  0  0  0  0  0  0  0  0  0  0  0
    0.3001   -0.0777    0.1799 N   0  0  0  0  0  0  0  0  0  0  0  0
   -0.3893   -2.8028    0.2858 N   0  0  0  0  0  0  0  0  0  0  0  0
    0.9252   -0.0155   -1.1199 C   0  0  0  0  0  0  0  0  0  0  0  0
   -1.0795   -0.4839    0.3388 C   0  0  1  0  0  0  0  0  0  0  0  0
    2.1918    0.7735   -0.8551 C   0  0  0  0  0  0  0  0  0  0  0  0
    2.5424    0.4293    0.5875 C   0  0  0  0  0  0  0  0  0  0  0  0
    1.1965    0.1605    1.2190 C   0  0  0  0  0  0  0  0  0  0  0  0
   -2.0557    0.5395   -0.2496 C   0  0  0  0  0  0  0  0  0  0  0  0
   -1.2510   -1.8743   -0.2584 C   0  0  0  0  0  0  0  0  0  0  0  0
   -1.8898    1.9508    0.3022 C   0  0  0  0  0  0  0  0  0  0  0  0
   -1.2874   -0.5723    1.4133 H   0  0  0  0  0  0  0  0  0  0  0  0
    0.2859    0.4826   -1.8530 H   0  0  0  0  0  0  0  0  0  0  0  0
    1.1553   -1.0317   -1.4556 H   0  0  0  0  0  0  0  0  0  0  0  0
    1.9818    1.8478   -0.9314 H   0  0  0  0  0  0  0  0  0  0  0  0
    2.9957    0.5376   -1.5579 H   0  0  0  0  0  0  0  0  0  0  0  0
    3.0543    1.2536    1.0899 H   0  0  0  0  0  0  0  0  0  0  0  0
    3.1463   -0.4816    0.6463 H   0  0  0  0  0  0  0  0  0  0  0  0
   -3.0821    0.2058   -0.0495 H   0  0  0  0  0  0  0  0  0  0  0  0
   -1.9621    0.5783   -1.3418 H   0  0  0  0  0  0  0  0  0  0  0  0
   -1.9774    1.9558    1.3932 H   0  0  0  0  0  0  0  0  0  0  0  0
   -0.9187    2.3756    0.0306 H   0  0  0  0  0  0  0  0  0  0  0  0
   -2.6662    2.6070   -0.1040 H   0  0  0  0  0  0  0  0  0  0  0  0
    0.2896   -2.5595    0.9998 H   0  0  0  0  0  0  0  0  0  0  0  0
   -0.4052   -3.7708   -0.0181 H   0  0  0  0  0  0  0  0  0  0  0  0
  1  9  2  0  0  0  0
  2 11  2  0  0  0  0
  3  5  1  0  0  0  0
  3  6  1  0  0  0  0
  3  9  1  0  0  0  0
  4 11  1  0  0  0  0
  4 25  1  0  0  0  0
  4 26  1  0  0  0  0
  5  7  1  0  0  0  0
  5 14  1  0  0  0  0
  5 15  1  0  0  0  0
  6 10  1  0  0  0  0
  6 11  1  0  0  0  0
  6 13  1  1  0  0  0
  7  8  1  0  0  0  0
  7 16  1  0  0  0  0
  7 17  1  0  0  0  0
  8  9  1  0  0  0  0
  8 18  1  0  0  0  0
  8 19  1  0  0  0  0
 10 12  1  0  0  0  0
 10 20  1  0  0  0  0
 10 21  1  0  0  0  0
 12 22  1  0  0  0  0
 12 23  1  0  0  0  0
 12 24  1  0  0  0  0
M  END
