DB01044
 OpenBabel07062211533D

 49 52  0  0  1  0  0  0  0  0999 V2000
   -1.2364   -3.3464   -0.0938 F   0  0  0  0  0  0  0  0  0  0  0  0
   -0.1812    1.2366    0.3596 O   0  0  0  0  0  0  0  0  0  0  0  0
    3.7918   -3.2387   -0.2930 O   0  0  0  0  0  0  0  0  0  0  0  0
    6.1390   -2.2653   -0.9290 O   0  0  0  0  0  0  0  0  0  0  0  0
    6.7175   -0.4855    0.3855 O   0  0  0  0  0  0  0  0  0  0  0  0
    2.6586    0.6494    0.1751 N   0  0  0  0  0  0  0  0  0  0  0  0
   -2.0535   -0.7357    0.2250 N   0  0  0  0  0  0  0  0  0  0  0  0
   -4.8723   -0.3051    0.2885 N   0  0  0  0  0  0  0  0  0  0  0  0
    2.3827    2.0953    0.3439 C   0  0  0  0  0  0  0  0  0  0  0  0
    2.9330    3.0931   -0.6182 C   0  0  0  0  0  0  0  0  0  0  0  0
    1.4599    2.8089   -0.5854 C   0  0  0  0  0  0  0  0  0  0  0  0
    1.6431   -0.3469    0.1100 C   0  0  0  0  0  0  0  0  0  0  0  0
    3.9856    0.2780    0.0784 C   0  0  0  0  0  0  0  0  0  0  0  0
    0.2755   -0.0411    0.2015 C   0  0  0  0  0  0  0  0  0  0  0  0
    2.0069   -1.7014   -0.0526 C   0  0  0  0  0  0  0  0  0  0  0  0
   -0.6923   -1.0472    0.1330 C   0  0  0  0  0  0  0  0  0  0  0  0
   -2.7787   -0.4334   -1.0175 C   0  0  0  0  0  0  0  0  0  0  0  0
   -4.0472    0.3779   -0.7143 C   0  0  1  0  0  0  0  0  0  0  0  0
   -2.8589   -1.3104    1.3072 C   0  0  0  0  0  0  0  0  0  0  0  0
   -4.1222   -0.4810    1.5306 C   0  0  0  0  0  0  0  0  0  0  0  0
    4.4372   -0.9726   -0.0767 C   0  0  2  0  0  0  0  0  0  0  0  0
    3.4429   -2.0730   -0.1536 C   0  0  0  0  0  0  0  0  0  0  0  0
    1.0363   -2.7084   -0.1210 C   0  0  0  0  0  0  0  0  0  0  0  0
   -0.3127   -2.3767   -0.0278 C   0  0  0  0  0  0  0  0  0  0  0  0
   -4.8713    0.5822   -1.9842 C   0  0  0  0  0  0  0  0  0  0  0  0
    5.8829   -1.1854   -0.1605 C   0  0  0  0  0  0  0  0  0  0  0  0
   -0.3428    1.7025    1.6961 C   0  0  0  0  0  0  0  0  0  0  0  0
    2.3923    2.3916    1.3878 H   0  0  0  0  0  0  0  0  0  0  0  0
    3.4847    2.7494   -1.4847 H   0  0  0  0  0  0  0  0  0  0  0  0
    3.2726    4.0428   -0.2228 H   0  0  0  0  0  0  0  0  0  0  0  0
    0.8352    3.6097   -0.2071 H   0  0  0  0  0  0  0  0  0  0  0  0
    1.0733    2.3233   -1.4747 H   0  0  0  0  0  0  0  0  0  0  0  0
    4.6748    1.1143    0.1483 H   0  0  0  0  0  0  0  0  0  0  0  0
   -3.0283   -1.3735   -1.5271 H   0  0  0  0  0  0  0  0  0  0  0  0
   -2.1413    0.1466   -1.6975 H   0  0  0  0  0  0  0  0  0  0  0  0
   -3.7648    1.3667   -0.3297 H   0  0  0  0  0  0  0  0  0  0  0  0
   -2.2824   -1.3319    2.2402 H   0  0  0  0  0  0  0  0  0  0  0  0
   -3.1338   -2.3438    1.0624 H   0  0  0  0  0  0  0  0  0  0  0  0
   -4.7610   -0.9783    2.2687 H   0  0  0  0  0  0  0  0  0  0  0  0
   -3.8651    0.5003    1.9482 H   0  0  0  0  0  0  0  0  0  0  0  0
   -5.1496   -1.2198   -0.0683 H   0  0  0  0  0  0  0  0  0  0  0  0
    1.3120   -3.7519   -0.2460 H   0  0  0  0  0  0  0  0  0  0  0  0
   -4.2862    1.1154   -2.7412 H   0  0  0  0  0  0  0  0  0  0  0  0
   -5.1906   -0.3726   -2.4172 H   0  0  0  0  0  0  0  0  0  0  0  0
   -5.7681    1.1767   -1.7776 H   0  0  0  0  0  0  0  0  0  0  0  0
    0.4703    1.3702    2.3497 H   0  0  0  0  0  0  0  0  0  0  0  0
   -1.2937    1.3410    2.0989 H   0  0  0  0  0  0  0  0  0  0  0  0
   -0.3746    2.7953    1.6924 H   0  0  0  0  0  0  0  0  0  0  0  0
    7.1008   -2.4409   -1.0095 H   0  0  0  0  0  0  0  0  0  0  0  0
  1 24  1  0  0  0  0
  2 14  1  0  0  0  0
  2 27  1  0  0  0  0
  3 22  2  0  0  0  0
  4 26  1  0  0  0  0
  4 49  1  0  0  0  0
  5 26  2  0  0  0  0
  6  9  1  0  0  0  0
  6 12  1  0  0  0  0
  6 13  2  0  0  0  0
  7 16  1  0  0  0  0
  7 17  1  0  0  0  0
  7 19  1  0  0  0  0
  8 18  1  0  0  0  0
  8 20  1  0  0  0  0
  8 41  1  0  0  0  0
  9 10  1  0  0  0  0
  9 11  1  0  0  0  0
  9 28  1  0  0  0  0
 10 11  1  0  0  0  0
 10 29  1  0  0  0  0
 10 30  1  0  0  0  0
 11 31  1  0  0  0  0
 11 32  1  0  0  0  0
 12 14  2  0  0  0  0
 12 15  1  0  0  0  0
 13 21  1  0  0  0  0
 13 33  1  0  0  0  0
 14 16  1  0  0  0  0
 15 22  1  0  0  0  0
 15 23  2  0  0  0  0
 16 24  2  0  0  0  0
 17 18  1  0  0  0  0
 17 34  1  0  0  0  0
 17 35  1  0  0  0  0
 18 25  1  0  0  0  0
 18 36  1  1  0  0  0
 19 20  1  0  0  0  0
 19 37  1  0  0  0  0
 19 38  1  0  0  0  0
 20 39  1  0  0  0  0
 20 40  1  0  0  0  0
 21 22  1  0  0  0  0
 21 26  1  1  0  0  0
 23 24  1  0  0  0  0
 23 42  1  0  0  0  0
 25 43  1  0  0  0  0
 25 44  1  0  0  0  0
 25 45  1  0  0  0  0
 27 46  1  0  0  0  0
 27 47  1  0  0  0  0
 27 48  1  0  0  0  0
M  END
