DB01259
 OpenBabel07062211533D

 66 70  0  0  0  0  0  0  0  0999 V2000
    3.4071   -0.0599   -2.6572 Cl  0  0  0  0  0  0  0  0  0  0  0  0
    0.0506   -3.1110   -0.1559 S   0  0  0  0  0  0  0  0  0  0  0  0
    7.6588   -2.9595   -0.1898 F   0  0  0  0  0  0  0  0  0  0  0  0
   -4.8346   -0.7900   -0.2962 O   0  0  0  0  0  0  0  0  0  0  0  0
    0.3096   -3.2264   -1.5810 O   0  0  0  0  0  0  0  0  0  0  0  0
    0.0348   -1.8093    0.4898 O   0  0  0  0  0  0  0  0  0  0  0  0
    4.6583    1.5900   -0.4770 O   0  0  0  0  0  0  0  0  0  0  0  0
   -3.9025   -3.8514   -0.1428 N   0  0  0  0  0  0  0  0  0  0  0  0
   -0.8533    2.1560   -0.8967 N   0  0  0  0  0  0  0  0  0  0  0  0
   -3.3535    5.3496   -0.0726 N   0  0  0  0  0  0  0  0  0  0  0  0
   -1.2157    4.4764   -0.7609 N   0  0  0  0  0  0  0  0  0  0  0  0
   -2.6510   -3.1702   -0.4161 C   0  0  0  0  0  0  0  0  0  0  0  0
   -1.4788   -3.9199    0.1948 C   0  0  0  0  0  0  0  0  0  0  0  0
   -5.0237   -3.1371   -0.7767 C   0  0  0  0  0  0  0  0  0  0  0  0
   -5.4500   -1.9646    0.0003 C   0  0  0  0  0  0  0  0  0  0  0  0
   -4.8461    1.4827    0.3691 C   0  0  0  0  0  0  0  0  0  0  0  0
   -5.3714    0.1487    0.5270 C   0  0  0  0  0  0  0  0  0  0  0  0
   -3.0261    2.9773   -0.1976 C   0  0  0  0  0  0  0  0  0  0  0  0
   -3.5326    1.6747   -0.0474 C   0  0  0  0  0  0  0  0  0  0  0  0
   -6.3738   -1.7861    1.0039 C   0  0  0  0  0  0  0  0  0  0  0  0
   -6.3226   -0.4137    1.3459 C   0  0  0  0  0  0  0  0  0  0  0  0
   -3.8278    4.0994    0.0675 C   0  0  0  0  0  0  0  0  0  0  0  0
   -5.6498    2.5858    0.6346 C   0  0  0  0  0  0  0  0  0  0  0  0
   -1.7224    3.2383   -0.6102 C   0  0  0  0  0  0  0  0  0  0  0  0
    1.2497   -4.1151    0.6903 C   0  0  0  0  0  0  0  0  0  0  0  0
   -5.1386    3.8782    0.4830 C   0  0  0  0  0  0  0  0  0  0  0  0
    0.5391    2.0077   -0.7967 C   0  0  0  0  0  0  0  0  0  0  0  0
   -2.0734    5.4702   -0.4794 C   0  0  0  0  0  0  0  0  0  0  0  0
    1.2139    1.1520   -1.6674 C   0  0  0  0  0  0  0  0  0  0  0  0
    1.2475    2.7164    0.1735 C   0  0  0  0  0  0  0  0  0  0  0  0
    3.3060    1.7138   -0.5975 C   0  0  0  0  0  0  0  0  0  0  0  0
    2.5975    1.0052   -1.5678 C   0  0  0  0  0  0  0  0  0  0  0  0
    2.6310    2.5693    0.2731 C   0  0  0  0  0  0  0  0  0  0  0  0
    5.1561    1.1136    0.7711 C   0  0  0  0  0  0  0  0  0  0  0  0
    6.4523    0.3946    0.5393 C   0  0  0  0  0  0  0  0  0  0  0  0
    6.4529   -0.9754    0.2770 C   0  0  0  0  0  0  0  0  0  0  0  0
    7.6571    1.0961    0.5867 C   0  0  0  0  0  0  0  0  0  0  0  0
    7.6582   -1.6438    0.0619 C   0  0  0  0  0  0  0  0  0  0  0  0
    8.8624    0.4278    0.3717 C   0  0  0  0  0  0  0  0  0  0  0  0
    8.8628   -0.9422    0.1093 C   0  0  0  0  0  0  0  0  0  0  0  0
   -2.6624   -2.1550   -0.0040 H   0  0  0  0  0  0  0  0  0  0  0  0
   -2.4946   -3.0782   -1.4982 H   0  0  0  0  0  0  0  0  0  0  0  0
   -1.4084   -4.9364   -0.2067 H   0  0  0  0  0  0  0  0  0  0  0  0
   -1.5778   -3.9754    1.2841 H   0  0  0  0  0  0  0  0  0  0  0  0
   -4.7926   -2.8684   -1.8147 H   0  0  0  0  0  0  0  0  0  0  0  0
   -5.8680   -3.8356   -0.8313 H   0  0  0  0  0  0  0  0  0  0  0  0
   -3.8558   -4.7942   -0.5301 H   0  0  0  0  0  0  0  0  0  0  0  0
   -2.9028    0.8084   -0.2357 H   0  0  0  0  0  0  0  0  0  0  0  0
   -7.0055   -2.5482    1.4372 H   0  0  0  0  0  0  0  0  0  0  0  0
   -6.9089    0.0926    2.0998 H   0  0  0  0  0  0  0  0  0  0  0  0
   -6.6816    2.4701    0.9577 H   0  0  0  0  0  0  0  0  0  0  0  0
    2.2369   -3.6797    0.5219 H   0  0  0  0  0  0  0  0  0  0  0  0
    1.0182   -4.1167    1.7569 H   0  0  0  0  0  0  0  0  0  0  0  0
    1.2120   -5.1269    0.2830 H   0  0  0  0  0  0  0  0  0  0  0  0
   -5.7885    4.7249    0.6963 H   0  0  0  0  0  0  0  0  0  0  0  0
   -1.2940    1.4360   -1.4625 H   0  0  0  0  0  0  0  0  0  0  0  0
    0.6595    0.5995   -2.4231 H   0  0  0  0  0  0  0  0  0  0  0  0
    0.7437    3.3798    0.8715 H   0  0  0  0  0  0  0  0  0  0  0  0
   -1.6971    6.4799   -0.5900 H   0  0  0  0  0  0  0  0  0  0  0  0
    3.1689    3.1334    1.0304 H   0  0  0  0  0  0  0  0  0  0  0  0
    4.4393    0.4353    1.2540 H   0  0  0  0  0  0  0  0  0  0  0  0
    5.3100    1.9635    1.4474 H   0  0  0  0  0  0  0  0  0  0  0  0
    5.5207   -1.5324    0.2352 H   0  0  0  0  0  0  0  0  0  0  0  0
    7.6696    2.1640    0.7883 H   0  0  0  0  0  0  0  0  0  0  0  0
    9.8004    0.9741    0.4080 H   0  0  0  0  0  0  0  0  0  0  0  0
    9.8010   -1.4628   -0.0582 H   0  0  0  0  0  0  0  0  0  0  0  0
  1 32  1  0  0  0  0
  2  5  2  0  0  0  0
  2  6  2  0  0  0  0
  2 13  1  0  0  0  0
  2 25  1  0  0  0  0
  3 38  1  0  0  0  0
  4 15  1  0  0  0  0
  4 17  1  0  0  0  0
  7 31  1  0  0  0  0
  7 34  1  0  0  0  0
  8 12  1  0  0  0  0
  8 14  1  0  0  0  0
  8 47  1  0  0  0  0
  9 24  1  0  0  0  0
  9 27  1  0  0  0  0
  9 56  1  0  0  0  0
 10 22  2  0  0  0  0
 10 28  1  0  0  0  0
 11 24  1  0  0  0  0
 11 28  2  0  0  0  0
 12 13  1  0  0  0  0
 12 41  1  0  0  0  0
 12 42  1  0  0  0  0
 13 43  1  0  0  0  0
 13 44  1  0  0  0  0
 14 15  1  0  0  0  0
 14 45  1  0  0  0  0
 14 46  1  0  0  0  0
 15 20  2  0  0  0  0
 16 17  1  0  0  0  0
 16 19  2  0  0  0  0
 16 23  1  0  0  0  0
 17 21  2  0  0  0  0
 18 19  1  0  0  0  0
 18 22  1  0  0  0  0
 18 24  2  0  0  0  0
 19 48  1  0  0  0  0
 20 21  1  0  0  0  0
 20 49  1  0  0  0  0
 21 50  1  0  0  0  0
 22 26  1  0  0  0  0
 23 26  2  0  0  0  0
 23 51  1  0  0  0  0
 25 52  1  0  0  0  0
 25 53  1  0  0  0  0
 25 54  1  0  0  0  0
 26 55  1  0  0  0  0
 27 29  2  0  0  0  0
 27 30  1  0  0  0  0
 28 59  1  0  0  0  0
 29 32  1  0  0  0  0
 29 57  1  0  0  0  0
 30 33  2  0  0  0  0
 30 58  1  0  0  0  0
 31 32  2  0  0  0  0
 31 33  1  0  0  0  0
 33 60  1  0  0  0  0
 34 35  1  0  0  0  0
 34 61  1  0  0  0  0
 34 62  1  0  0  0  0
 35 36  2  0  0  0  0
 35 37  1  0  0  0  0
 36 38  1  0  0  0  0
 36 63  1  0  0  0  0
 37 39  2  0  0  0  0
 37 64  1  0  0  0  0
 38 40  2  0  0  0  0
 39 40  1  0  0  0  0
 39 65  1  0  0  0  0
 40 66  1  0  0  0  0
M  END
