DB01133
 OpenBabel07062211533D

 26 26  0  0  0  0  0  0  0  0999 V2000
    5.4539   -0.2361   -0.9199 Cl  0  0  0  0  0  0  0  0  0  0  0  0
   -0.3747   -0.7612    1.3921 S   0  0  0  0  0  0  0  0  0  0  0  0
   -3.0834   -0.5694    0.4820 P   0  0  0  0  0  0  0  0  0  0  0  0
   -0.7564    1.3857   -0.5026 P   0  0  0  0  0  0  0  0  0  0  0  0
   -3.9274   -0.3332   -0.8773 O   0  0  0  0  0  0  0  0  0  0  0  0
   -3.1448   -2.1747    0.6691 O   0  0  0  0  0  0  0  0  0  0  0  0
   -1.7372    1.8102   -1.7170 O   0  0  0  0  0  0  0  0  0  0  0  0
   -1.2443    2.3450    0.7042 O   0  0  0  0  0  0  0  0  0  0  0  0
   -3.5523    0.2365    1.6572 O   0  0  0  0  0  0  0  0  0  0  0  0
    0.7045    1.4589   -0.8332 O   0  0  0  0  0  0  0  0  0  0  0  0
   -1.3823   -0.2463   -0.0478 C   0  0  0  0  0  0  0  0  0  0  0  0
    1.2796   -0.6117    0.7355 C   0  0  0  0  0  0  0  0  0  0  0  0
    1.6555   -1.3631   -0.3755 C   0  0  0  0  0  0  0  0  0  0  0  0
    2.1882    0.2562    1.3365 C   0  0  0  0  0  0  0  0  0  0  0  0
    2.9473   -1.2458   -0.8883 C   0  0  0  0  0  0  0  0  0  0  0  0
    3.4801    0.3734    0.8236 C   0  0  0  0  0  0  0  0  0  0  0  0
    3.8598   -0.3778   -0.2887 C   0  0  0  0  0  0  0  0  0  0  0  0
   -1.1810   -0.9231   -0.8841 H   0  0  0  0  0  0  0  0  0  0  0  0
    0.9644   -2.0523   -0.8537 H   0  0  0  0  0  0  0  0  0  0  0  0
    1.9092    0.8501    2.2032 H   0  0  0  0  0  0  0  0  0  0  0  0
   -4.9049   -0.4106   -0.8484 H   0  0  0  0  0  0  0  0  0  0  0  0
   -3.9806   -2.5847    0.9779 H   0  0  0  0  0  0  0  0  0  0  0  0
   -1.5830    2.6639   -2.1747 H   0  0  0  0  0  0  0  0  0  0  0  0
   -1.0005    3.2948    0.6833 H   0  0  0  0  0  0  0  0  0  0  0  0
    3.2298   -1.8387   -1.7545 H   0  0  0  0  0  0  0  0  0  0  0  0
    4.1804    1.0541    1.3009 H   0  0  0  0  0  0  0  0  0  0  0  0
  1 17  1  0  0  0  0
  2 11  1  0  0  0  0
  2 12  1  0  0  0  0
  3  5  1  0  0  0  0
  3  6  1  0  0  0  0
  3  9  2  0  0  0  0
  3 11  1  0  0  0  0
  4  7  1  0  0  0  0
  4  8  1  0  0  0  0
  4 10  2  0  0  0  0
  4 11  1  0  0  0  0
  5 21  1  0  0  0  0
  6 22  1  0  0  0  0
  7 23  1  0  0  0  0
  8 24  1  0  0  0  0
 11 18  1  0  0  0  0
 12 13  2  0  0  0  0
 12 14  1  0  0  0  0
 13 15  1  0  0  0  0
 13 19  1  0  0  0  0
 14 16  2  0  0  0  0
 14 20  1  0  0  0  0
 15 17  2  0  0  0  0
 15 25  1  0  0  0  0
 16 17  1  0  0  0  0
 16 26  1  0  0  0  0
M  END
