DB01783
 OpenBabel07062211533D

 32 31  0  0  1  0  0  0  0  0999 V2000
   -2.0725   -2.2836    0.1763 O   0  0  0  0  0  0  0  0  0  0  0  0
   -1.3227    2.5471    0.0732 O   0  0  0  0  0  0  0  0  0  0  0  0
    0.2517   -2.1480   -1.1978 O   0  0  0  0  0  0  0  0  0  0  0  0
    3.0380    2.1587   -0.5931 O   0  0  0  0  0  0  0  0  0  0  0  0
    3.2381    1.1844    1.4480 O   0  0  0  0  0  0  0  0  0  0  0  0
    1.2553   -1.1943    0.6641 N   0  0  0  0  0  0  0  0  0  0  0  0
   -1.7493    0.1332    0.1009 C   0  0  0  0  0  0  0  0  0  0  0  0
   -1.1680   -1.2437    0.5393 C   0  0  2  0  0  0  0  0  0  0  0  0
   -0.7897    1.2897    0.4746 C   0  0  0  0  0  0  0  0  0  0  0  0
   -3.0989    0.3514    0.8259 C   0  0  0  0  0  0  0  0  0  0  0  0
   -2.0292    0.1580   -1.4151 C   0  0  0  0  0  0  0  0  0  0  0  0
    0.1726   -1.5928   -0.1035 C   0  0  0  0  0  0  0  0  0  0  0  0
    2.6263   -1.3919    0.2535 C   0  0  0  0  0  0  0  0  0  0  0  0
    3.1593   -0.2118   -0.5483 C   0  0  0  0  0  0  0  0  0  0  0  0
    3.1503    1.0848    0.2321 C   0  0  0  0  0  0  0  0  0  0  0  0
   -1.0649   -1.2783    1.6302 H   0  0  0  0  0  0  0  0  0  0  0  0
    0.1837    1.1830   -0.0113 H   0  0  0  0  0  0  0  0  0  0  0  0
   -0.6257    1.3242    1.5568 H   0  0  0  0  0  0  0  0  0  0  0  0
   -3.8230   -0.4319    0.5757 H   0  0  0  0  0  0  0  0  0  0  0  0
   -3.5541    1.3097    0.5520 H   0  0  0  0  0  0  0  0  0  0  0  0
   -2.9640    0.3466    1.9134 H   0  0  0  0  0  0  0  0  0  0  0  0
   -2.5117    1.0937   -1.7198 H   0  0  0  0  0  0  0  0  0  0  0  0
   -2.7061   -0.6445   -1.7251 H   0  0  0  0  0  0  0  0  0  0  0  0
   -1.1051    0.0664   -1.9951 H   0  0  0  0  0  0  0  0  0  0  0  0
    1.0920   -0.7305    1.5528 H   0  0  0  0  0  0  0  0  0  0  0  0
   -2.0621   -2.3847   -0.7898 H   0  0  0  0  0  0  0  0  0  0  0  0
    3.2150   -1.5383    1.1653 H   0  0  0  0  0  0  0  0  0  0  0  0
    2.6931   -2.3069   -0.3447 H   0  0  0  0  0  0  0  0  0  0  0  0
   -1.1936    2.6312   -0.8865 H   0  0  0  0  0  0  0  0  0  0  0  0
    2.5426   -0.0792   -1.4453 H   0  0  0  0  0  0  0  0  0  0  0  0
    4.1898   -0.4051   -0.8641 H   0  0  0  0  0  0  0  0  0  0  0  0
    3.0326    3.0034   -0.0945 H   0  0  0  0  0  0  0  0  0  0  0  0
  1  8  1  0  0  0  0
  1 26  1  0  0  0  0
  2  9  1  0  0  0  0
  2 29  1  0  0  0  0
  3 12  2  0  0  0  0
  4 15  1  0  0  0  0
  4 32  1  0  0  0  0
  5 15  2  0  0  0  0
  6 12  1  0  0  0  0
  6 13  1  0  0  0  0
  6 25  1  0  0  0  0
  7  8  1  0  0  0  0
  7  9  1  0  0  0  0
  7 10  1  0  0  0  0
  7 11  1  0  0  0  0
  8 12  1  0  0  0  0
  8 16  1  1  0  0  0
  9 17  1  0  0  0  0
  9 18  1  0  0  0  0
 10 19  1  0  0  0  0
 10 20  1  0  0  0  0
 10 21  1  0  0  0  0
 11 22  1  0  0  0  0
 11 23  1  0  0  0  0
 11 24  1  0  0  0  0
 13 14  1  0  0  0  0
 13 27  1  0  0  0  0
 13 28  1  0  0  0  0
 14 15  1  0  0  0  0
 14 30  1  0  0  0  0
 14 31  1  0  0  0  0
M  END
