DB01324
 OpenBabel07062211533D

 38 39  0  0  1  0  0  0  0  0999 V2000
   -3.5116   -3.4301    0.3359 Cl  0  0  0  0  0  0  0  0  0  0  0  0
   -0.9795    2.1233   -1.0702 S   0  0  0  0  0  0  0  0  0  0  0  0
    3.6066   -0.6958   -0.6569 S   0  0  0  0  0  0  0  0  0  0  0  0
   -5.3971   -0.9022   -0.3713 S   0  0  0  0  0  0  0  0  0  0  0  0
    7.2964   -1.3724    0.6412 F   0  0  0  0  0  0  0  0  0  0  0  0
    5.6631   -2.7664    0.2253 F   0  0  0  0  0  0  0  0  0  0  0  0
    6.4627   -1.5128   -1.3662 F   0  0  0  0  0  0  0  0  0  0  0  0
   -1.7994    3.1507   -0.4588 O   0  0  0  0  0  0  0  0  0  0  0  0
   -0.7449    2.1038   -2.5013 O   0  0  0  0  0  0  0  0  0  0  0  0
   -5.9110    0.1433   -1.2415 O   0  0  0  0  0  0  0  0  0  0  0  0
   -5.7673   -2.2894   -0.6026 O   0  0  0  0  0  0  0  0  0  0  0  0
    0.5376    2.0120   -0.2294 N   0  0  0  0  0  0  0  0  0  0  0  0
    0.5549   -0.4524   -0.3145 N   0  0  0  0  0  0  0  0  0  0  0  0
   -5.7504   -0.4992    1.2498 N   0  0  0  0  0  0  0  0  0  0  0  0
    1.2865    0.7664   -0.6272 C   0  0  2  0  0  0  0  0  0  0  0  0
   -1.6745    0.5475   -0.6727 C   0  0  0  0  0  0  0  0  0  0  0  0
   -0.8296   -0.5351   -0.3751 C   0  0  0  0  0  0  0  0  0  0  0  0
    2.6780    0.7146   -0.0041 C   0  0  0  0  0  0  0  0  0  0  0  0
    0.4889    2.2515    1.2440 C   0  0  0  0  0  0  0  0  0  0  0  0
   -3.0669    0.4317   -0.6690 C   0  0  0  0  0  0  0  0  0  0  0  0
   -1.4489   -1.7557   -0.0614 C   0  0  0  0  0  0  0  0  0  0  0  0
   -3.6482   -0.7944   -0.3620 C   0  0  0  0  0  0  0  0  0  0  0  0
   -2.8411   -1.8876   -0.0584 C   0  0  0  0  0  0  0  0  0  0  0  0
    5.1436   -0.4536    0.2641 C   0  0  0  0  0  0  0  0  0  0  0  0
    6.1488   -1.5371   -0.0505 C   0  0  0  0  0  0  0  0  0  0  0  0
    1.4164    0.8209   -1.7173 H   0  0  0  0  0  0  0  0  0  0  0  0
    1.0788   -1.3137   -0.2042 H   0  0  0  0  0  0  0  0  0  0  0  0
    2.6187    0.5960    1.0830 H   0  0  0  0  0  0  0  0  0  0  0  0
    3.2246    1.6384   -0.2215 H   0  0  0  0  0  0  0  0  0  0  0  0
   -0.1645    3.0975    1.4744 H   0  0  0  0  0  0  0  0  0  0  0  0
    1.4832    2.5284    1.6062 H   0  0  0  0  0  0  0  0  0  0  0  0
    0.1374    1.3698    1.7855 H   0  0  0  0  0  0  0  0  0  0  0  0
   -3.6810    1.2961   -0.9041 H   0  0  0  0  0  0  0  0  0  0  0  0
   -0.8286   -2.6160    0.1883 H   0  0  0  0  0  0  0  0  0  0  0  0
    5.5664    0.5231    0.0094 H   0  0  0  0  0  0  0  0  0  0  0  0
    4.9242   -0.4648    1.3362 H   0  0  0  0  0  0  0  0  0  0  0  0
   -6.1862    0.4134    1.4308 H   0  0  0  0  0  0  0  0  0  0  0  0
   -6.0863   -1.2495    1.8659 H   0  0  0  0  0  0  0  0  0  0  0  0
  1 23  1  0  0  0  0
  2  8  2  0  0  0  0
  2  9  2  0  0  0  0
  2 12  1  0  0  0  0
  2 16  1  0  0  0  0
  3 18  1  0  0  0  0
  3 24  1  0  0  0  0
  4 10  2  0  0  0  0
  4 11  2  0  0  0  0
  4 14  1  0  0  0  0
  4 22  1  0  0  0  0
  5 25  1  0  0  0  0
  6 25  1  0  0  0  0
  7 25  1  0  0  0  0
 12 15  1  0  0  0  0
 12 19  1  0  0  0  0
 13 15  1  0  0  0  0
 13 17  1  0  0  0  0
 13 27  1  0  0  0  0
 14 37  1  0  0  0  0
 14 38  1  0  0  0  0
 15 18  1  0  0  0  0
 15 26  1  6  0  0  0
 16 17  2  0  0  0  0
 16 20  1  0  0  0  0
 17 21  1  0  0  0  0
 18 28  1  0  0  0  0
 18 29  1  0  0  0  0
 19 30  1  0  0  0  0
 19 31  1  0  0  0  0
 19 32  1  0  0  0  0
 20 22  2  0  0  0  0
 20 33  1  0  0  0  0
 21 23  2  0  0  0  0
 21 34  1  0  0  0  0
 22 23  1  0  0  0  0
 24 25  1  0  0  0  0
 24 35  1  0  0  0  0
 24 36  1  0  0  0  0
M  END
