DB01088
 OpenBabel07062211533D

 58 59  0  0  1  0  0  0  0  0999 V2000
   -0.7192    4.0297   -1.0538 O   0  0  0  0  0  0  0  0  0  0  0  0
   -4.7593    0.9852   -2.3397 O   0  0  0  0  0  0  0  0  0  0  0  0
    8.8754   -1.6732   -0.4874 O   0  0  0  0  0  0  0  0  0  0  0  0
    7.4581   -2.5654    1.0491 O   0  0  0  0  0  0  0  0  0  0  0  0
   -0.0117    1.2160    1.1268 C   0  0  1  0  0  0  0  0  0  0  0  0
    1.1971    2.1466    1.2598 C   0  0  2  0  0  0  0  0  0  0  0  0
   -0.7760    1.8010   -0.0694 C   0  0  2  0  0  0  0  0  0  0  0  0
    0.6979    3.5308    0.8413 C   0  0  0  0  0  0  0  0  0  0  0  0
   -0.6647    3.3115    0.1692 C   0  0  1  0  0  0  0  0  0  0  0  0
    0.5799   -0.1749    0.9155 C   0  0  0  0  0  0  0  0  0  0  0  0
    2.2465    1.5583    0.3096 C   0  0  0  0  0  0  0  0  0  0  0  0
    1.9257    0.0911    0.3005 C   0  0  0  0  0  0  0  0  0  0  0  0
   -2.1924    1.3303   -0.1480 C   0  0  0  0  0  0  0  0  0  0  0  0
    2.7346   -0.8571   -0.1843 C   0  0  0  0  0  0  0  0  0  0  0  0
   -2.7142    0.7086   -1.2156 C   0  0  0  0  0  0  0  0  0  0  0  0
    4.0810   -0.5838   -0.7891 C   0  0  0  0  0  0  0  0  0  0  0  0
   -4.1405    0.2351   -1.2942 C   0  0  2  0  0  0  0  0  0  0  0  0
    5.1857   -1.3447   -0.0492 C   0  0  0  0  0  0  0  0  0  0  0  0
   -4.2475   -1.2818   -1.5975 C   0  0  1  0  0  0  0  0  0  0  0  0
    6.5674   -1.0934   -0.6465 C   0  0  0  0  0  0  0  0  0  0  0  0
   -3.4902   -2.1643   -0.5795 C   0  0  0  0  0  0  0  0  0  0  0  0
   -5.7077   -1.7383   -1.7320 C   0  0  0  0  0  0  0  0  0  0  0  0
    7.6526   -1.8577    0.0694 C   0  0  0  0  0  0  0  0  0  0  0  0
   -4.0065   -2.0527    0.7930 C   0  0  0  0  0  0  0  0  0  0  0  0
   -4.4251   -1.9611    1.9149 C   0  0  0  0  0  0  0  0  0  0  0  0
   -4.9364   -1.8453    3.2796 C   0  0  0  0  0  0  0  0  0  0  0  0
   -0.6322    1.2432    2.0321 H   0  0  0  0  0  0  0  0  0  0  0  0
    1.5857    2.1531    2.2856 H   0  0  0  0  0  0  0  0  0  0  0  0
   -0.2660    1.5472   -1.0094 H   0  0  0  0  0  0  0  0  0  0  0  0
    1.4152    4.0590    0.2036 H   0  0  0  0  0  0  0  0  0  0  0  0
    0.5534    4.1508    1.7345 H   0  0  0  0  0  0  0  0  0  0  0  0
   -1.4661    3.6855    0.8173 H   0  0  0  0  0  0  0  0  0  0  0  0
    0.7179   -0.6682    1.8846 H   0  0  0  0  0  0  0  0  0  0  0  0
   -0.0537   -0.8042    0.2835 H   0  0  0  0  0  0  0  0  0  0  0  0
    2.1538    1.9686   -0.7024 H   0  0  0  0  0  0  0  0  0  0  0  0
    3.2499    1.7738    0.6900 H   0  0  0  0  0  0  0  0  0  0  0  0
   -2.8235    1.5064    0.7202 H   0  0  0  0  0  0  0  0  0  0  0  0
    2.4097   -1.8944   -0.1526 H   0  0  0  0  0  0  0  0  0  0  0  0
    0.0003    3.7107   -1.6249 H   0  0  0  0  0  0  0  0  0  0  0  0
   -2.0897    0.5339   -2.0888 H   0  0  0  0  0  0  0  0  0  0  0  0
    4.3262    0.4823   -0.8119 H   0  0  0  0  0  0  0  0  0  0  0  0
    4.0550   -0.9152   -1.8346 H   0  0  0  0  0  0  0  0  0  0  0  0
   -4.6848    0.4653   -0.3705 H   0  0  0  0  0  0  0  0  0  0  0  0
    4.9701   -2.4212   -0.0690 H   0  0  0  0  0  0  0  0  0  0  0  0
    5.1882   -1.0499    1.0087 H   0  0  0  0  0  0  0  0  0  0  0  0
   -3.7872   -1.4581   -2.5808 H   0  0  0  0  0  0  0  0  0  0  0  0
    6.5745   -1.4008   -1.6981 H   0  0  0  0  0  0  0  0  0  0  0  0
    6.8088   -0.0265   -0.5871 H   0  0  0  0  0  0  0  0  0  0  0  0
   -2.4216   -1.9212   -0.5888 H   0  0  0  0  0  0  0  0  0  0  0  0
   -3.5584   -3.2122   -0.8984 H   0  0  0  0  0  0  0  0  0  0  0  0
   -4.7444    1.9230   -2.0813 H   0  0  0  0  0  0  0  0  0  0  0  0
   -5.7640   -2.8135   -1.9335 H   0  0  0  0  0  0  0  0  0  0  0  0
   -6.2819   -1.5294   -0.8236 H   0  0  0  0  0  0  0  0  0  0  0  0
   -6.2011   -1.2227   -2.5626 H   0  0  0  0  0  0  0  0  0  0  0  0
    9.5732   -2.1730   -0.0125 H   0  0  0  0  0  0  0  0  0  0  0  0
   -4.4911   -0.9860    3.7901 H   0  0  0  0  0  0  0  0  0  0  0  0
   -4.7039   -2.7431    3.8601 H   0  0  0  0  0  0  0  0  0  0  0  0
   -6.0227   -1.7137    3.2783 H   0  0  0  0  0  0  0  0  0  0  0  0
  1  9  1  0  0  0  0
  1 39  1  0  0  0  0
  2 17  1  0  0  0  0
  2 51  1  0  0  0  0
  3 23  1  0  0  0  0
  3 55  1  0  0  0  0
  4 23  2  0  0  0  0
  5  6  1  1  0  0  0
  5 10  1  0  0  0  0
  5 27  1  0  0  0  0
  6  8  1  0  0  0  0
  6 11  1  0  0  0  0
  6 28  1  1  0  0  0
  7  5  1  1  0  0  0
  7 13  1  0  0  0  0
  7 29  1  0  0  0  0
  8  9  1  0  0  0  0
  8 30  1  0  0  0  0
  8 31  1  0  0  0  0
  9  7  1  6  0  0  0
  9 32  1  0  0  0  0
 10 12  1  0  0  0  0
 10 33  1  0  0  0  0
 10 34  1  0  0  0  0
 11 12  1  0  0  0  0
 11 35  1  0  0  0  0
 11 36  1  0  0  0  0
 12 14  2  0  0  0  0
 13 15  2  0  0  0  0
 13 37  1  0  0  0  0
 14 16  1  0  0  0  0
 14 38  1  0  0  0  0
 15 17  1  0  0  0  0
 15 40  1  0  0  0  0
 16 18  1  0  0  0  0
 16 41  1  0  0  0  0
 16 42  1  0  0  0  0
 17 19  1  0  0  0  0
 17 43  1  1  0  0  0
 18 20  1  0  0  0  0
 18 44  1  0  0  0  0
 18 45  1  0  0  0  0
 19 21  1  0  0  0  0
 19 22  1  0  0  0  0
 19 46  1  6  0  0  0
 20 23  1  0  0  0  0
 20 47  1  0  0  0  0
 20 48  1  0  0  0  0
 21 24  1  0  0  0  0
 21 49  1  0  0  0  0
 21 50  1  0  0  0  0
 22 52  1  0  0  0  0
 22 53  1  0  0  0  0
 22 54  1  0  0  0  0
 24 25  3  0  0  0  0
 25 26  1  0  0  0  0
 26 56  1  0  0  0  0
 26 57  1  0  0  0  0
 26 58  1  0  0  0  0
M  END
