DB01224
 OpenBabel07062211533D

 52 55  0  0  0  0  0  0  0  0999 V2000
   -4.8221    0.6289   -1.7149 S   0  0  0  0  0  0  0  0  0  0  0  0
    5.5692    0.0087    0.3143 O   0  0  0  0  0  0  0  0  0  0  0  0
    8.2911    0.6121    0.0767 O   0  0  0  0  0  0  0  0  0  0  0  0
    2.0559    0.3079   -0.7586 N   0  0  0  0  0  0  0  0  0  0  0  0
   -0.7571   -0.1280   -0.7481 N   0  0  0  0  0  0  0  0  0  0  0  0
   -2.6790   -1.3659   -0.5598 N   0  0  0  0  0  0  0  0  0  0  0  0
    1.4750   -0.8089    0.0010 C   0  0  0  0  0  0  0  0  0  0  0  0
    1.1231    1.4437   -0.7906 C   0  0  0  0  0  0  0  0  0  0  0  0
    0.1532   -1.2627   -0.6207 C   0  0  0  0  0  0  0  0  0  0  0  0
   -0.2068    1.0404   -1.4298 C   0  0  0  0  0  0  0  0  0  0  0  0
    3.3368    0.7112   -0.1801 C   0  0  0  0  0  0  0  0  0  0  0  0
   -2.0668   -0.2184   -0.4229 C   0  0  0  0  0  0  0  0  0  0  0  0
    4.3372   -0.4320   -0.2413 C   0  0  0  0  0  0  0  0  0  0  0  0
   -2.7048    1.0407    0.0686 C   0  0  0  0  0  0  0  0  0  0  0  0
   -3.8991    1.5321   -0.4813 C   0  0  0  0  0  0  0  0  0  0  0  0
   -2.0376    1.7721    1.0611 C   0  0  0  0  0  0  0  0  0  0  0  0
   -4.0269   -1.5968   -0.2335 C   0  0  0  0  0  0  0  0  0  0  0  0
   -5.1004   -0.8425   -0.7395 C   0  0  0  0  0  0  0  0  0  0  0  0
   -4.4073    2.7581   -0.0316 C   0  0  0  0  0  0  0  0  0  0  0  0
    6.5510   -1.0184    0.2865 C   0  0  0  0  0  0  0  0  0  0  0  0
   -2.5580    2.9866    1.5055 C   0  0  0  0  0  0  0  0  0  0  0  0
   -3.7391    3.4807    0.9577 C   0  0  0  0  0  0  0  0  0  0  0  0
   -4.3118   -2.7168    0.5621 C   0  0  0  0  0  0  0  0  0  0  0  0
   -6.4212   -1.2065   -0.4409 C   0  0  0  0  0  0  0  0  0  0  0  0
    7.8448   -0.4821    0.8683 C   0  0  0  0  0  0  0  0  0  0  0  0
   -5.6274   -3.0713    0.8631 C   0  0  0  0  0  0  0  0  0  0  0  0
   -6.6818   -2.3172    0.3593 C   0  0  0  0  0  0  0  0  0  0  0  0
    2.1148   -1.6949   -0.0105 H   0  0  0  0  0  0  0  0  0  0  0  0
    1.3127   -0.5243    1.0493 H   0  0  0  0  0  0  0  0  0  0  0  0
    0.9508    1.8312    0.2217 H   0  0  0  0  0  0  0  0  0  0  0  0
    1.5531    2.2603   -1.3832 H   0  0  0  0  0  0  0  0  0  0  0  0
    0.3245   -1.7026   -1.6109 H   0  0  0  0  0  0  0  0  0  0  0  0
   -0.2740   -2.0478    0.0149 H   0  0  0  0  0  0  0  0  0  0  0  0
   -0.8777    1.9049   -1.4447 H   0  0  0  0  0  0  0  0  0  0  0  0
   -0.0418    0.7781   -2.4833 H   0  0  0  0  0  0  0  0  0  0  0  0
    3.2264    1.0552    0.8572 H   0  0  0  0  0  0  0  0  0  0  0  0
    3.7527    1.5606   -0.7375 H   0  0  0  0  0  0  0  0  0  0  0  0
    4.4945   -0.7474   -1.2800 H   0  0  0  0  0  0  0  0  0  0  0  0
    4.0187   -1.2942    0.3497 H   0  0  0  0  0  0  0  0  0  0  0  0
   -1.1182    1.4028    1.5081 H   0  0  0  0  0  0  0  0  0  0  0  0
   -5.3319    3.1619   -0.4378 H   0  0  0  0  0  0  0  0  0  0  0  0
    6.2092   -1.8768    0.8750 H   0  0  0  0  0  0  0  0  0  0  0  0
    6.7110   -1.3319   -0.7516 H   0  0  0  0  0  0  0  0  0  0  0  0
   -2.0410    3.5485    2.2780 H   0  0  0  0  0  0  0  0  0  0  0  0
   -4.1431    4.4279    1.3032 H   0  0  0  0  0  0  0  0  0  0  0  0
   -3.5004   -3.3297    0.9492 H   0  0  0  0  0  0  0  0  0  0  0  0
   -7.2595   -0.6256   -0.8187 H   0  0  0  0  0  0  0  0  0  0  0  0
    8.6244   -1.2491    0.8859 H   0  0  0  0  0  0  0  0  0  0  0  0
    7.6887   -0.1082    1.8845 H   0  0  0  0  0  0  0  0  0  0  0  0
   -5.8271   -3.9402    1.4833 H   0  0  0  0  0  0  0  0  0  0  0  0
   -7.7066   -2.5925    0.5900 H   0  0  0  0  0  0  0  0  0  0  0  0
    8.4496    0.2781   -0.8226 H   0  0  0  0  0  0  0  0  0  0  0  0
  1 15  1  0  0  0  0
  1 18  1  0  0  0  0
  2 13  1  0  0  0  0
  2 20  1  0  0  0  0
  3 25  1  0  0  0  0
  3 52  1  0  0  0  0
  4  7  1  0  0  0  0
  4  8  1  0  0  0  0
  4 11  1  0  0  0  0
  5  9  1  0  0  0  0
  5 10  1  0  0  0  0
  5 12  1  0  0  0  0
  6 12  2  0  0  0  0
  6 17  1  0  0  0  0
  7  9  1  0  0  0  0
  7 28  1  0  0  0  0
  7 29  1  0  0  0  0
  8 10  1  0  0  0  0
  8 30  1  0  0  0  0
  8 31  1  0  0  0  0
  9 32  1  0  0  0  0
  9 33  1  0  0  0  0
 10 34  1  0  0  0  0
 10 35  1  0  0  0  0
 11 13  1  0  0  0  0
 11 36  1  0  0  0  0
 11 37  1  0  0  0  0
 12 14  1  0  0  0  0
 13 38  1  0  0  0  0
 13 39  1  0  0  0  0
 14 15  2  0  0  0  0
 14 16  1  0  0  0  0
 15 19  1  0  0  0  0
 16 21  2  0  0  0  0
 16 40  1  0  0  0  0
 17 18  2  0  0  0  0
 17 23  1  0  0  0  0
 18 24  1  0  0  0  0
 19 22  2  0  0  0  0
 19 41  1  0  0  0  0
 20 25  1  0  0  0  0
 20 42  1  0  0  0  0
 20 43  1  0  0  0  0
 21 22  1  0  0  0  0
 21 44  1  0  0  0  0
 22 45  1  0  0  0  0
 23 26  2  0  0  0  0
 23 46  1  0  0  0  0
 24 27  2  0  0  0  0
 24 47  1  0  0  0  0
 25 48  1  0  0  0  0
 25 49  1  0  0  0  0
 26 27  1  0  0  0  0
 26 50  1  0  0  0  0
 27 51  1  0  0  0  0
M  END
