DB01392
 OpenBabel07062211533D

 52 56  0  0  1  0  0  0  0  0999 V2000
   -4.5537    0.0115   -1.1848 O   0  0  0  0  0  0  0  0  0  0  0  0
   -3.8847    2.7426    0.5154 O   0  0  0  0  0  0  0  0  0  0  0  0
   -2.1066    2.4514   -0.9303 O   0  0  0  0  0  0  0  0  0  0  0  0
    0.6389   -1.8861    0.0532 N   0  0  1  0  0  0  0  0  0  0  0  0
    2.5304    1.3098   -0.4125 N   0  0  0  0  0  0  0  0  0  0  0  0
   -1.7456   -0.2043   -0.1838 C   0  0  2  0  0  0  0  0  0  0  0  0
   -1.7931   -1.6520    0.3510 C   0  0  2  0  0  0  0  0  0  0  0  0
   -0.3462    0.3839    0.0757 C   0  0  0  0  0  0  0  0  0  0  0  0
    0.7415   -0.5190   -0.5291 C   0  0  1  0  0  0  0  0  0  0  0  0
   -2.8729    0.6319    0.4524 C   0  0  2  0  0  0  0  0  0  0  0  0
   -0.6602   -2.4960   -0.2544 C   0  0  0  0  0  0  0  0  0  0  0  0
   -3.1632   -2.2910    0.0952 C   0  0  0  0  0  0  0  0  0  0  0  0
   -4.2529   -0.0036    0.2123 C   0  0  2  0  0  0  0  0  0  0  0  0
   -4.2881   -1.4515    0.7056 C   0  0  0  0  0  0  0  0  0  0  0  0
    2.1239    0.0109   -0.2974 C   0  0  1  0  0  0  0  0  0  0  0  0
    1.7587   -2.7518   -0.3741 C   0  0  0  0  0  0  0  0  0  0  0  0
    3.2261   -0.7620    0.0029 C   0  0  0  0  0  0  0  0  0  0  0  0
    3.1092   -2.2360    0.1774 C   0  0  0  0  0  0  0  0  0  0  0  0
   -2.8858    2.0343   -0.0841 C   0  0  0  0  0  0  0  0  0  0  0  0
    4.3471    0.1048    0.1056 C   0  0  0  0  0  0  0  0  0  0  0  0
    3.8834    1.3982   -0.1590 C   0  0  0  0  0  0  0  0  0  0  0  0
    5.7140   -0.0789    0.3947 C   0  0  0  0  0  0  0  0  0  0  0  0
    4.7248    2.5166   -0.1486 C   0  0  0  0  0  0  0  0  0  0  0  0
    6.5652    1.0318    0.4093 C   0  0  0  0  0  0  0  0  0  0  0  0
    6.0760    2.3086    0.1416 C   0  0  0  0  0  0  0  0  0  0  0  0
   -4.0108    4.1047    0.0947 C   0  0  0  0  0  0  0  0  0  0  0  0
   -1.8940   -0.2294   -1.2735 H   0  0  0  0  0  0  0  0  0  0  0  0
   -1.6424   -1.6230    1.4411 H   0  0  0  0  0  0  0  0  0  0  0  0
   -0.1854    0.4947    1.1573 H   0  0  0  0  0  0  0  0  0  0  0  0
   -0.2361    1.3827   -0.3500 H   0  0  0  0  0  0  0  0  0  0  0  0
    0.5929   -0.5754   -1.6175 H   0  0  0  0  0  0  0  0  0  0  0  0
   -2.6859    0.7008    1.5329 H   0  0  0  0  0  0  0  0  0  0  0  0
   -0.7068   -3.5011    0.1833 H   0  0  0  0  0  0  0  0  0  0  0  0
   -0.7958   -2.6059   -1.3382 H   0  0  0  0  0  0  0  0  0  0  0  0
   -3.1928   -3.2981    0.5283 H   0  0  0  0  0  0  0  0  0  0  0  0
   -3.3293   -2.4057   -0.9832 H   0  0  0  0  0  0  0  0  0  0  0  0
   -5.0407    0.5640    0.7205 H   0  0  0  0  0  0  0  0  0  0  0  0
   -5.2478   -1.9138    0.4462 H   0  0  0  0  0  0  0  0  0  0  0  0
   -4.2012   -1.4676    1.7989 H   0  0  0  0  0  0  0  0  0  0  0  0
    1.7976   -2.8068   -1.4705 H   0  0  0  0  0  0  0  0  0  0  0  0
    1.6158   -3.7743   -0.0036 H   0  0  0  0  0  0  0  0  0  0  0  0
    3.9322   -2.7499   -0.3315 H   0  0  0  0  0  0  0  0  0  0  0  0
    3.1801   -2.4702    1.2469 H   0  0  0  0  0  0  0  0  0  0  0  0
    1.9371    2.0934   -0.6477 H   0  0  0  0  0  0  0  0  0  0  0  0
   -5.4352   -0.3827   -1.2992 H   0  0  0  0  0  0  0  0  0  0  0  0
    6.1101   -1.0684    0.6046 H   0  0  0  0  0  0  0  0  0  0  0  0
    4.3459    3.5113   -0.3578 H   0  0  0  0  0  0  0  0  0  0  0  0
    7.6200    0.8951    0.6319 H   0  0  0  0  0  0  0  0  0  0  0  0
    6.7552    3.1572    0.1577 H   0  0  0  0  0  0  0  0  0  0  0  0
   -4.8390    4.5559    0.6474 H   0  0  0  0  0  0  0  0  0  0  0  0
   -4.2358    4.1508   -0.9750 H   0  0  0  0  0  0  0  0  0  0  0  0
   -3.0942    4.6576    0.3216 H   0  0  0  0  0  0  0  0  0  0  0  0
  1 13  1  0  0  0  0
  1 45  1  0  0  0  0
  2 19  1  0  0  0  0
  2 26  1  0  0  0  0
  3 19  2  0  0  0  0
  4  9  1  6  0  0  0
  4 11  1  0  0  0  0
  4 16  1  0  0  0  0
  5 15  1  0  0  0  0
  5 21  2  0  0  0  0
  5 44  1  0  0  0  0
  6  7  1  1  0  0  0
  6  8  1  0  0  0  0
  6 27  1  0  0  0  0
  7 11  1  0  0  0  0
  7 12  1  0  0  0  0
  7 28  1  1  0  0  0
  8  9  1  0  0  0  0
  8 29  1  0  0  0  0
  8 30  1  0  0  0  0
  9 31  1  6  0  0  0
 10  6  1  6  0  0  0
 10 19  1  0  0  0  0
 10 32  1  0  0  0  0
 11 33  1  0  0  0  0
 11 34  1  0  0  0  0
 12 14  1  0  0  0  0
 12 35  1  0  0  0  0
 12 36  1  0  0  0  0
 13 10  1  1  0  0  0
 13 14  1  0  0  0  0
 13 37  1  0  0  0  0
 14 38  1  0  0  0  0
 14 39  1  0  0  0  0
 15  9  1  6  0  0  0
 15 17  1  0  0  0  0
 16 18  1  0  0  0  0
 16 40  1  0  0  0  0
 16 41  1  0  0  0  0
 17 18  1  0  0  0  0
 17 20  2  0  0  0  0
 18 42  1  0  0  0  0
 18 43  1  0  0  0  0
 20 21  1  0  0  0  0
 20 22  1  0  0  0  0
 21 23  1  0  0  0  0
 22 24  2  0  0  0  0
 22 46  1  0  0  0  0
 23 25  2  0  0  0  0
 23 47  1  0  0  0  0
 24 25  1  0  0  0  0
 24 48  1  0  0  0  0
 25 49  1  0  0  0  0
 26 50  1  0  0  0  0
 26 51  1  0  0  0  0
 26 52  1  0  0  0  0
M  END
