DB01146
 OpenBabel07062211533D

 44 46  0  0  0  0  0  0  0  0999 V2000
   -0.0436    0.3503   -0.7325 O   0  0  0  0  0  0  0  0  0  0  0  0
    4.0871    0.6823   -0.1438 N   0  0  0  0  0  0  0  0  0  0  0  0
    1.2321    0.0597   -0.1761 C   0  0  0  0  0  0  0  0  0  0  0  0
    1.7830    1.3180    0.4875 C   0  0  0  0  0  0  0  0  0  0  0  0
    2.1820   -0.4194   -1.2701 C   0  0  0  0  0  0  0  0  0  0  0  0
    3.2205    1.1119    0.9632 C   0  0  0  0  0  0  0  0  0  0  0  0
    3.6072   -0.5725   -0.7403 C   0  0  0  0  0  0  0  0  0  0  0  0
   -1.0856    0.1261    0.2073 C   0  0  0  0  0  0  0  0  0  0  0  0
    5.4682    0.5354    0.3150 C   0  0  0  0  0  0  0  0  0  0  0  0
   -2.2049    1.1235   -0.0087 C   0  0  0  0  0  0  0  0  0  0  0  0
   -1.5644   -1.3126    0.1836 C   0  0  0  0  0  0  0  0  0  0  0  0
   -2.9711    1.5214    1.0723 C   0  0  0  0  0  0  0  0  0  0  0  0
   -2.0616   -1.8750    1.3447 C   0  0  0  0  0  0  0  0  0  0  0  0
   -2.4350    1.6139   -1.2816 C   0  0  0  0  0  0  0  0  0  0  0  0
   -1.4926   -2.0261   -0.9985 C   0  0  0  0  0  0  0  0  0  0  0  0
   -4.0018    2.4400    0.8737 C   0  0  0  0  0  0  0  0  0  0  0  0
   -2.5024   -3.1982    1.3230 C   0  0  0  0  0  0  0  0  0  0  0  0
   -3.4656    2.5327   -1.4801 C   0  0  0  0  0  0  0  0  0  0  0  0
   -1.9334   -3.3493   -1.0201 C   0  0  0  0  0  0  0  0  0  0  0  0
   -4.2491    2.9457   -0.4024 C   0  0  0  0  0  0  0  0  0  0  0  0
   -2.4384   -3.9353    0.1408 C   0  0  0  0  0  0  0  0  0  0  0  0
    1.1613   -0.7464    0.5680 H   0  0  0  0  0  0  0  0  0  0  0  0
    1.1567    1.6152    1.3362 H   0  0  0  0  0  0  0  0  0  0  0  0
    1.7386    2.1581   -0.2189 H   0  0  0  0  0  0  0  0  0  0  0  0
    2.1659    0.2869   -2.1109 H   0  0  0  0  0  0  0  0  0  0  0  0
    1.8263   -1.3733   -1.6776 H   0  0  0  0  0  0  0  0  0  0  0  0
    3.5847    2.0625    1.3715 H   0  0  0  0  0  0  0  0  0  0  0  0
    3.2366    0.3785    1.7803 H   0  0  0  0  0  0  0  0  0  0  0  0
    3.6428   -1.3916   -0.0098 H   0  0  0  0  0  0  0  0  0  0  0  0
    4.2546   -0.8560   -1.5790 H   0  0  0  0  0  0  0  0  0  0  0  0
   -0.6907    0.3318    1.2131 H   0  0  0  0  0  0  0  0  0  0  0  0
    5.8443    1.4841    0.7136 H   0  0  0  0  0  0  0  0  0  0  0  0
    6.1242    0.2645   -0.5197 H   0  0  0  0  0  0  0  0  0  0  0  0
    5.5669   -0.2296    1.0938 H   0  0  0  0  0  0  0  0  0  0  0  0
   -2.7865    1.1400    2.0720 H   0  0  0  0  0  0  0  0  0  0  0  0
   -2.1120   -1.3140    2.2729 H   0  0  0  0  0  0  0  0  0  0  0  0
   -1.8464    1.2987   -2.1379 H   0  0  0  0  0  0  0  0  0  0  0  0
   -1.1128   -1.5866   -1.9159 H   0  0  0  0  0  0  0  0  0  0  0  0
   -4.6112    2.7625    1.7129 H   0  0  0  0  0  0  0  0  0  0  0  0
   -2.8944   -3.6549    2.2271 H   0  0  0  0  0  0  0  0  0  0  0  0
   -3.6602    2.9246   -2.4742 H   0  0  0  0  0  0  0  0  0  0  0  0
   -1.8858   -3.9228   -1.9412 H   0  0  0  0  0  0  0  0  0  0  0  0
   -5.0517    3.6607   -0.5570 H   0  0  0  0  0  0  0  0  0  0  0  0
   -2.7818   -4.9655    0.1238 H   0  0  0  0  0  0  0  0  0  0  0  0
  1  3  1  0  0  0  0
  1  8  1  0  0  0  0
  2  6  1  0  0  0  0
  2  7  1  0  0  0  0
  2  9  1  0  0  0  0
  3  4  1  0  0  0  0
  3  5  1  0  0  0  0
  3 22  1  0  0  0  0
  4  6  1  0  0  0  0
  4 23  1  0  0  0  0
  4 24  1  0  0  0  0
  5  7  1  0  0  0  0
  5 25  1  0  0  0  0
  5 26  1  0  0  0  0
  6 27  1  0  0  0  0
  6 28  1  0  0  0  0
  7 29  1  0  0  0  0
  7 30  1  0  0  0  0
  8 10  1  0  0  0  0
  8 11  1  0  0  0  0
  8 31  1  0  0  0  0
  9 32  1  0  0  0  0
  9 33  1  0  0  0  0
  9 34  1  0  0  0  0
 10 12  2  0  0  0  0
 10 14  1  0  0  0  0
 11 13  2  0  0  0  0
 11 15  1  0  0  0  0
 12 16  1  0  0  0  0
 12 35  1  0  0  0  0
 13 17  1  0  0  0  0
 13 36  1  0  0  0  0
 14 18  2  0  0  0  0
 14 37  1  0  0  0  0
 15 19  2  0  0  0  0
 15 38  1  0  0  0  0
 16 20  2  0  0  0  0
 16 39  1  0  0  0  0
 17 21  2  0  0  0  0
 17 40  1  0  0  0  0
 18 20  1  0  0  0  0
 18 41  1  0  0  0  0
 19 21  1  0  0  0  0
 19 42  1  0  0  0  0
 20 43  1  0  0  0  0
 21 44  1  0  0  0  0
M  END
