DB01206
 OpenBabel07062211533D

 31 31  0  0  0  0  0  0  0  0999 V2000
    6.2185    0.4805    0.4459 Cl  0  0  0  0  0  0  0  0  0  0  0  0
    1.5341    1.5927    0.7461 O   0  0  0  0  0  0  0  0  0  0  0  0
    2.9836   -2.0365   -1.6832 O   0  0  0  0  0  0  0  0  0  0  0  0
    0.0679   -0.0932    0.2041 N   0  0  0  0  0  0  0  0  0  0  0  0
    2.3281   -0.2059   -0.4810 N   0  0  0  0  0  0  0  0  0  0  0  0
    2.0136   -1.5142   -1.1236 N   0  0  0  0  0  0  0  0  0  0  0  0
   -1.0675    0.5161    0.8599 C   0  0  0  0  0  0  0  0  0  0  0  0
   -1.8032    1.4708   -0.0863 C   0  0  0  0  0  0  0  0  0  0  0  0
   -2.0155   -0.5483    1.4226 C   0  0  0  0  0  0  0  0  0  0  0  0
   -2.5735    0.7314   -1.1804 C   0  0  0  0  0  0  0  0  0  0  0  0
   -2.7854   -1.2845    0.3259 C   0  0  0  0  0  0  0  0  0  0  0  0
   -3.5179   -0.3143   -0.5957 C   0  0  0  0  0  0  0  0  0  0  0  0
    1.3252    0.5074    0.1943 C   0  0  0  0  0  0  0  0  0  0  0  0
    3.6914    0.3017   -0.5698 C   0  0  0  0  0  0  0  0  0  0  0  0
    4.5635   -0.1628    0.5844 C   0  0  0  0  0  0  0  0  0  0  0  0
   -0.6846    1.1031    1.7041 H   0  0  0  0  0  0  0  0  0  0  0  0
   -1.1002    2.1731   -0.5497 H   0  0  0  0  0  0  0  0  0  0  0  0
   -2.5125    2.0723    0.4967 H   0  0  0  0  0  0  0  0  0  0  0  0
   -2.7361   -0.0648    2.0946 H   0  0  0  0  0  0  0  0  0  0  0  0
   -1.4574   -1.2752    2.0250 H   0  0  0  0  0  0  0  0  0  0  0  0
   -1.8682    0.2456   -1.8656 H   0  0  0  0  0  0  0  0  0  0  0  0
   -3.1467    1.4518   -1.7750 H   0  0  0  0  0  0  0  0  0  0  0  0
   -3.5091   -1.9675    0.7855 H   0  0  0  0  0  0  0  0  0  0  0  0
   -2.1007   -1.9055   -0.2636 H   0  0  0  0  0  0  0  0  0  0  0  0
   -4.3152    0.1888   -0.0348 H   0  0  0  0  0  0  0  0  0  0  0  0
   -4.0012   -0.8700   -1.4072 H   0  0  0  0  0  0  0  0  0  0  0  0
   -0.0957   -0.9371   -0.3323 H   0  0  0  0  0  0  0  0  0  0  0  0
    4.1292    0.0309   -1.5377 H   0  0  0  0  0  0  0  0  0  0  0  0
    3.6436    1.3981   -0.5587 H   0  0  0  0  0  0  0  0  0  0  0  0
    4.6353   -1.2544    0.6110 H   0  0  0  0  0  0  0  0  0  0  0  0
    4.1568    0.1700    1.5446 H   0  0  0  0  0  0  0  0  0  0  0  0
  1 15  1  0  0  0  0
  2 13  2  0  0  0  0
  3  6  2  0  0  0  0
  4  7  1  0  0  0  0
  4 13  1  0  0  0  0
  4 27  1  0  0  0  0
  5  6  1  0  0  0  0
  5 13  1  0  0  0  0
  5 14  1  0  0  0  0
  7  8  1  0  0  0  0
  7  9  1  0  0  0  0
  7 16  1  0  0  0  0
  8 10  1  0  0  0  0
  8 17  1  0  0  0  0
  8 18  1  0  0  0  0
  9 11  1  0  0  0  0
  9 19  1  0  0  0  0
  9 20  1  0  0  0  0
 10 12  1  0  0  0  0
 10 21  1  0  0  0  0
 10 22  1  0  0  0  0
 11 12  1  0  0  0  0
 11 23  1  0  0  0  0
 11 24  1  0  0  0  0
 12 25  1  0  0  0  0
 12 26  1  0  0  0  0
 14 15  1  0  0  0  0
 14 28  1  0  0  0  0
 14 29  1  0  0  0  0
 15 30  1  0  0  0  0
 15 31  1  0  0  0  0
M  END
