DB01241
 OpenBabel07062211533D

 40 40  0  0  0  0  0  0  0  0999 V2000
   -0.7658   -0.0407   -1.0601 O   0  0  0  0  0  0  0  0  0  0  0  0
    3.3607    1.5411   -1.4101 O   0  0  0  0  0  0  0  0  0  0  0  0
    4.7433   -0.2298   -1.6359 O   0  0  0  0  0  0  0  0  0  0  0  0
    3.3311   -0.1196    0.3575 C   0  0  0  0  0  0  0  0  0  0  0  0
    1.7919   -0.2932    0.2973 C   0  0  0  0  0  0  0  0  0  0  0  0
    1.2931   -1.2649   -0.7775 C   0  0  0  0  0  0  0  0  0  0  0  0
    4.0086   -1.4527    0.7327 C   0  0  0  0  0  0  0  0  0  0  0  0
    3.6908    0.9075    1.4476 C   0  0  0  0  0  0  0  0  0  0  0  0
   -0.2301   -1.3318   -0.8017 C   0  0  0  0  0  0  0  0  0  0  0  0
    3.8924    0.3664   -0.9857 C   0  0  0  0  0  0  0  0  0  0  0  0
   -2.0028    0.2312   -0.5369 C   0  0  0  0  0  0  0  0  0  0  0  0
   -2.3472    1.5304   -0.1789 C   0  0  0  0  0  0  0  0  0  0  0  0
   -2.9079   -0.8120   -0.3699 C   0  0  0  0  0  0  0  0  0  0  0  0
   -4.1713   -0.5527    0.1613 C   0  0  0  0  0  0  0  0  0  0  0  0
   -3.6106    1.7895    0.3524 C   0  0  0  0  0  0  0  0  0  0  0  0
   -4.5226    0.7480    0.5223 C   0  0  0  0  0  0  0  0  0  0  0  0
   -1.3832    2.6572   -0.3528 C   0  0  0  0  0  0  0  0  0  0  0  0
   -5.1470   -1.6659    0.3430 C   0  0  0  0  0  0  0  0  0  0  0  0
    1.4271   -0.6300    1.2768 H   0  0  0  0  0  0  0  0  0  0  0  0
    1.3389    0.6916    0.1262 H   0  0  0  0  0  0  0  0  0  0  0  0
    1.6443   -0.9313   -1.7606 H   0  0  0  0  0  0  0  0  0  0  0  0
    1.6873   -2.2712   -0.6050 H   0  0  0  0  0  0  0  0  0  0  0  0
    3.5952   -1.8596    1.6622 H   0  0  0  0  0  0  0  0  0  0  0  0
    3.8875   -2.2087   -0.0503 H   0  0  0  0  0  0  0  0  0  0  0  0
    5.0873   -1.3199    0.8782 H   0  0  0  0  0  0  0  0  0  0  0  0
    4.7720    1.0854    1.4823 H   0  0  0  0  0  0  0  0  0  0  0  0
    3.2108    1.8745    1.2582 H   0  0  0  0  0  0  0  0  0  0  0  0
    3.3709    0.5652    2.4380 H   0  0  0  0  0  0  0  0  0  0  0  0
   -0.5577   -1.7263    0.1693 H   0  0  0  0  0  0  0  0  0  0  0  0
   -0.5477   -2.0179   -1.5953 H   0  0  0  0  0  0  0  0  0  0  0  0
    3.7389    1.8244   -2.2696 H   0  0  0  0  0  0  0  0  0  0  0  0
   -2.6783   -1.8300   -0.6715 H   0  0  0  0  0  0  0  0  0  0  0  0
   -3.8996    2.7971    0.6393 H   0  0  0  0  0  0  0  0  0  0  0  0
   -5.5043    0.9637    0.9357 H   0  0  0  0  0  0  0  0  0  0  0  0
   -1.8439    3.6264   -0.1332 H   0  0  0  0  0  0  0  0  0  0  0  0
   -0.5303    2.5324    0.3220 H   0  0  0  0  0  0  0  0  0  0  0  0
   -1.0212    2.6964   -1.3856 H   0  0  0  0  0  0  0  0  0  0  0  0
   -5.6731   -1.8616   -0.5967 H   0  0  0  0  0  0  0  0  0  0  0  0
   -4.6391   -2.5825    0.6618 H   0  0  0  0  0  0  0  0  0  0  0  0
   -5.8883   -1.4261    1.1129 H   0  0  0  0  0  0  0  0  0  0  0  0
  1  9  1  0  0  0  0
  1 11  1  0  0  0  0
  2 10  1  0  0  0  0
  2 31  1  0  0  0  0
  3 10  2  0  0  0  0
  4  5  1  0  0  0  0
  4  7  1  0  0  0  0
  4  8  1  0  0  0  0
  4 10  1  0  0  0  0
  5  6  1  0  0  0  0
  5 19  1  0  0  0  0
  5 20  1  0  0  0  0
  6  9  1  0  0  0  0
  6 21  1  0  0  0  0
  6 22  1  0  0  0  0
  7 23  1  0  0  0  0
  7 24  1  0  0  0  0
  7 25  1  0  0  0  0
  8 26  1  0  0  0  0
  8 27  1  0  0  0  0
  8 28  1  0  0  0  0
  9 29  1  0  0  0  0
  9 30  1  0  0  0  0
 11 12  2  0  0  0  0
 11 13  1  0  0  0  0
 12 15  1  0  0  0  0
 12 17  1  0  0  0  0
 13 14  2  0  0  0  0
 13 32  1  0  0  0  0
 14 16  1  0  0  0  0
 14 18  1  0  0  0  0
 15 16  2  0  0  0  0
 15 33  1  0  0  0  0
 16 34  1  0  0  0  0
 17 35  1  0  0  0  0
 17 36  1  0  0  0  0
 17 37  1  0  0  0  0
 18 38  1  0  0  0  0
 18 39  1  0  0  0  0
 18 40  1  0  0  0  0
M  END
