DB01625
 OpenBabel07062211533D

 59 60  0  0  0  0  0  0  0  0999 V2000
   -0.9355    0.6512   -2.7518 O   0  0  0  0  0  0  0  0  0  0  0  0
    2.3249   -0.0652    0.1968 N   0  3  0  0  0  0  0  0  0  0  0  0
   -1.6378   -1.4856   -2.3752 N   0  0  0  0  0  0  0  0  0  0  0  0
    1.0707    0.4498   -0.4114 C   0  0  0  0  0  0  0  0  0  0  0  0
    3.5412    0.7060   -0.3319 C   0  0  0  0  0  0  0  0  0  0  0  0
    2.5190   -1.5507   -0.1339 C   0  0  0  0  0  0  0  0  0  0  0  0
   -0.1158   -0.3275    0.1709 C   0  0  0  0  0  0  0  0  0  0  0  0
    2.2896    0.0846    1.7233 C   0  0  0  0  0  0  0  0  0  0  0  0
   -1.5266    0.0566   -0.4298 C   0  0  0  0  0  0  0  0  0  0  0  0
    3.3656    2.1767    0.0102 C   0  0  0  0  0  0  0  0  0  0  0  0
    4.7952    0.1151    0.2922 C   0  0  0  0  0  0  0  0  0  0  0  0
    1.3835   -2.3381    0.5001 C   0  0  0  0  0  0  0  0  0  0  0  0
    2.5550   -1.7072   -1.6456 C   0  0  0  0  0  0  0  0  0  0  0  0
   -2.6453   -0.8475    0.1683 C   0  0  0  0  0  0  0  0  0  0  0  0
   -1.9353    1.5290   -0.1414 C   0  0  0  0  0  0  0  0  0  0  0  0
   -1.3565   -0.1965   -1.9644 C   0  0  0  0  0  0  0  0  0  0  0  0
   -3.9108   -0.6872   -0.3120 C   0  0  0  0  0  0  0  0  0  0  0  0
   -1.5073    2.0886    1.0268 C   0  0  0  0  0  0  0  0  0  0  0  0
   -2.2867   -1.7403    1.1337 C   0  0  0  0  0  0  0  0  0  0  0  0
   -2.6969    2.1698   -1.0744 C   0  0  0  0  0  0  0  0  0  0  0  0
   -4.9127   -1.4964    0.2238 C   0  0  0  0  0  0  0  0  0  0  0  0
   -1.8742    3.4092    1.2857 C   0  0  0  0  0  0  0  0  0  0  0  0
   -3.2885   -2.5496    1.6695 C   0  0  0  0  0  0  0  0  0  0  0  0
   -3.0637    3.4904   -0.8156 C   0  0  0  0  0  0  0  0  0  0  0  0
   -4.6014   -2.4276    1.2146 C   0  0  0  0  0  0  0  0  0  0  0  0
   -2.6524    4.1101    0.3645 C   0  0  0  0  0  0  0  0  0  0  0  0
    1.1532    0.4353   -1.4984 H   0  0  0  0  0  0  0  0  0  0  0  0
    0.9424    1.4920   -0.1145 H   0  0  0  0  0  0  0  0  0  0  0  0
    3.5698    0.6308   -1.4220 H   0  0  0  0  0  0  0  0  0  0  0  0
    3.4423   -1.9085    0.3254 H   0  0  0  0  0  0  0  0  0  0  0  0
   -0.1721   -0.2689    1.2529 H   0  0  0  0  0  0  0  0  0  0  0  0
   -0.1250   -1.3111   -0.2409 H   0  0  0  0  0  0  0  0  0  0  0  0
    1.4517   -0.4170    2.1972 H   0  0  0  0  0  0  0  0  0  0  0  0
    3.1786   -0.3593    2.1727 H   0  0  0  0  0  0  0  0  0  0  0  0
    2.1882    1.1359    1.9953 H   0  0  0  0  0  0  0  0  0  0  0  0
    4.2263    2.7235   -0.3994 H   0  0  0  0  0  0  0  0  0  0  0  0
    2.4993    2.6494   -0.4572 H   0  0  0  0  0  0  0  0  0  0  0  0
    3.3801    2.4068    1.0775 H   0  0  0  0  0  0  0  0  0  0  0  0
    5.6487    0.7112   -0.0617 H   0  0  0  0  0  0  0  0  0  0  0  0
    4.8627    0.1819    1.3792 H   0  0  0  0  0  0  0  0  0  0  0  0
    5.0397   -0.8960   -0.0391 H   0  0  0  0  0  0  0  0  0  0  0  0
    1.9014   -3.2438    0.8711 H   0  0  0  0  0  0  0  0  0  0  0  0
    0.7245   -2.8517   -0.2148 H   0  0  0  0  0  0  0  0  0  0  0  0
    0.9140   -2.0516    1.4363 H   0  0  0  0  0  0  0  0  0  0  0  0
    2.6900   -2.7735   -1.8728 H   0  0  0  0  0  0  0  0  0  0  0  0
    1.6299   -1.4287   -2.1555 H   0  0  0  0  0  0  0  0  0  0  0  0
    3.3993   -1.2148   -2.1311 H   0  0  0  0  0  0  0  0  0  0  0  0
   -4.1830   -0.0023   -1.1036 H   0  0  0  0  0  0  0  0  0  0  0  0
   -0.9249    1.5723    1.7782 H   0  0  0  0  0  0  0  0  0  0  0  0
   -1.3030   -1.8968    1.5444 H   0  0  0  0  0  0  0  0  0  0  0  0
   -3.0492    1.7215   -1.9955 H   0  0  0  0  0  0  0  0  0  0  0  0
   -1.9087   -2.2321   -1.7448 H   0  0  0  0  0  0  0  0  0  0  0  0
   -1.5389   -1.7441   -3.3514 H   0  0  0  0  0  0  0  0  0  0  0  0
   -5.9336   -1.4076   -0.1359 H   0  0  0  0  0  0  0  0  0  0  0  0
   -1.5592    3.8902    2.2072 H   0  0  0  0  0  0  0  0  0  0  0  0
   -3.0479   -3.2749    2.4414 H   0  0  0  0  0  0  0  0  0  0  0  0
   -3.6728    4.0356   -1.5308 H   0  0  0  0  0  0  0  0  0  0  0  0
   -5.3811   -3.0589    1.6306 H   0  0  0  0  0  0  0  0  0  0  0  0
   -2.9399    5.1377    0.5670 H   0  0  0  0  0  0  0  0  0  0  0  0
  1 16  2  0  0  0  0
  2  4  1  0  0  0  0
  2  5  1  0  0  0  0
  2  6  1  0  0  0  0
  2  8  1  0  0  0  0
  3 16  1  0  0  0  0
  3 52  1  0  0  0  0
  3 53  1  0  0  0  0
  4  7  1  0  0  0  0
  4 27  1  0  0  0  0
  4 28  1  0  0  0  0
  5 10  1  0  0  0  0
  5 11  1  0  0  0  0
  5 29  1  0  0  0  0
  6 12  1  0  0  0  0
  6 13  1  0  0  0  0
  6 30  1  0  0  0  0
  7  9  1  0  0  0  0
  7 31  1  0  0  0  0
  7 32  1  0  0  0  0
  8 33  1  0  0  0  0
  8 34  1  0  0  0  0
  8 35  1  0  0  0  0
  9 14  1  0  0  0  0
  9 15  1  0  0  0  0
  9 16  1  0  0  0  0
 10 36  1  0  0  0  0
 10 37  1  0  0  0  0
 10 38  1  0  0  0  0
 11 39  1  0  0  0  0
 11 40  1  0  0  0  0
 11 41  1  0  0  0  0
 12 42  1  0  0  0  0
 12 43  1  0  0  0  0
 12 44  1  0  0  0  0
 13 45  1  0  0  0  0
 13 46  1  0  0  0  0
 13 47  1  0  0  0  0
 14 17  2  0  0  0  0
 14 19  1  0  0  0  0
 15 18  2  0  0  0  0
 15 20  1  0  0  0  0
 17 21  1  0  0  0  0
 17 48  1  0  0  0  0
 18 22  1  0  0  0  0
 18 49  1  0  0  0  0
 19 23  2  0  0  0  0
 19 50  1  0  0  0  0
 20 24  2  0  0  0  0
 20 51  1  0  0  0  0
 21 25  2  0  0  0  0
 21 54  1  0  0  0  0
 22 26  2  0  0  0  0
 22 55  1  0  0  0  0
 23 25  1  0  0  0  0
 23 56  1  0  0  0  0
 24 26  1  0  0  0  0
 24 57  1  0  0  0  0
 25 58  1  0  0  0  0
 26 59  1  0  0  0  0
M  CHG  1   2   1
M  END
