DB01326
 OpenBabel07062211533D

 49 52  0  0  1  0  0  0  0  0999 V2000
    0.6550   -0.1992    1.3398 S   0  0  0  0  0  0  0  0  0  0  0  0
   -3.8264    0.7281   -0.1226 S   0  0  0  0  0  0  0  0  0  0  0  0
    0.4423   -3.7157   -1.6937 O   0  0  0  0  0  0  0  0  0  0  0  0
   -3.0498   -3.6972   -0.2840 O   0  0  0  0  0  0  0  0  0  0  0  0
    4.5168   -1.9422    0.8081 O   0  0  0  0  0  0  0  0  0  0  0  0
   -2.6560   -2.2370   -1.9994 O   0  0  0  0  0  0  0  0  0  0  0  0
    6.0438   -0.7411   -1.1475 O   0  0  0  0  0  0  0  0  0  0  0  0
   -0.2762   -2.3467    0.0868 N   0  0  0  0  0  0  0  0  0  0  0  0
    2.6417   -1.6144   -0.5210 N   0  0  0  0  0  0  0  0  0  0  0  0
   -6.2454    1.9397   -0.4186 N   0  0  0  0  0  0  0  0  0  0  0  0
   -6.2300    0.4191    1.1274 N   0  0  0  0  0  0  0  0  0  0  0  0
   -7.4909    1.9277    0.0765 N   0  0  0  0  0  0  0  0  0  0  0  0
   -7.4756    0.9954    1.0213 N   0  0  0  0  0  0  0  0  0  0  0  0
    0.6793   -1.9930    1.1206 C   0  0  1  0  0  0  0  0  0  0  0  0
    1.7640   -2.5544    0.1755 C   0  0  1  0  0  0  0  0  0  0  0  0
    0.5727   -3.0520   -0.6918 C   0  0  0  0  0  0  0  0  0  0  0  0
   -1.5807   -1.9697    0.1037 C   0  0  0  0  0  0  0  0  0  0  0  0
   -2.0240   -0.9934    0.9310 C   0  0  0  0  0  0  0  0  0  0  0  0
   -1.1028   -0.1710    1.8294 C   0  0  0  0  0  0  0  0  0  0  0  0
   -3.4685   -0.5752    1.0667 C   0  0  0  0  0  0  0  0  0  0  0  0
    3.9631   -1.3863   -0.1382 C   0  0  0  0  0  0  0  0  0  0  0  0
   -2.4765   -2.6235   -0.8621 C   0  0  0  0  0  0  0  0  0  0  0  0
    4.6751   -0.3810   -1.0325 C   0  0  1  0  0  0  0  0  0  0  0  0
    4.5844    1.0212   -0.4778 C   0  0  0  0  0  0  0  0  0  0  0  0
   -5.5325    1.0262    0.2372 C   0  0  0  0  0  0  0  0  0  0  0  0
    3.5193    1.8280   -0.8442 C   0  0  0  0  0  0  0  0  0  0  0  0
    5.5676    1.4736    0.3872 C   0  0  0  0  0  0  0  0  0  0  0  0
    3.4353    3.1226   -0.3320 C   0  0  0  0  0  0  0  0  0  0  0  0
    5.4833    2.7683    0.8995 C   0  0  0  0  0  0  0  0  0  0  0  0
    4.4172    3.5927    0.5399 C   0  0  0  0  0  0  0  0  0  0  0  0
   -5.8926    2.8477   -1.4806 C   0  0  0  0  0  0  0  0  0  0  0  0
    0.5482   -2.5745    2.0409 H   0  0  0  0  0  0  0  0  0  0  0  0
    2.3236   -3.3929    0.6089 H   0  0  0  0  0  0  0  0  0  0  0  0
   -1.1883   -0.5303    2.8609 H   0  0  0  0  0  0  0  0  0  0  0  0
   -1.4019    0.8821    1.8195 H   0  0  0  0  0  0  0  0  0  0  0  0
    2.2817   -1.0903   -1.3153 H   0  0  0  0  0  0  0  0  0  0  0  0
   -4.1362   -1.4250    0.8884 H   0  0  0  0  0  0  0  0  0  0  0  0
   -3.6702   -0.2301    2.0873 H   0  0  0  0  0  0  0  0  0  0  0  0
    4.2568   -0.4075   -2.0457 H   0  0  0  0  0  0  0  0  0  0  0  0
   -3.6587   -4.1643   -0.8950 H   0  0  0  0  0  0  0  0  0  0  0  0
    6.0835   -1.5942   -1.6127 H   0  0  0  0  0  0  0  0  0  0  0  0
    2.7490    1.4711   -1.5217 H   0  0  0  0  0  0  0  0  0  0  0  0
    6.3998    0.8472    0.6942 H   0  0  0  0  0  0  0  0  0  0  0  0
    2.6046    3.7642   -0.6112 H   0  0  0  0  0  0  0  0  0  0  0  0
    6.2459    3.1336    1.5813 H   0  0  0  0  0  0  0  0  0  0  0  0
    4.3511    4.6003    0.9397 H   0  0  0  0  0  0  0  0  0  0  0  0
   -5.0923    3.5024   -1.1274 H   0  0  0  0  0  0  0  0  0  0  0  0
   -5.5645    2.2633   -2.3435 H   0  0  0  0  0  0  0  0  0  0  0  0
   -6.7651    3.4476   -1.7531 H   0  0  0  0  0  0  0  0  0  0  0  0
  1 14  1  0  0  0  0
  1 19  1  0  0  0  0
  2 20  1  0  0  0  0
  2 25  1  0  0  0  0
  3 16  2  0  0  0  0
  4 22  1  0  0  0  0
  4 40  1  0  0  0  0
  5 21  2  0  0  0  0
  6 22  2  0  0  0  0
  7 23  1  0  0  0  0
  7 41  1  0  0  0  0
  8 14  1  0  0  0  0
  8 16  1  0  0  0  0
  8 17  1  0  0  0  0
  9 15  1  0  0  0  0
  9 21  1  0  0  0  0
  9 36  1  0  0  0  0
 10 12  1  0  0  0  0
 10 25  2  0  0  0  0
 10 31  1  0  0  0  0
 11 13  2  0  0  0  0
 11 25  1  0  0  0  0
 12 13  1  0  0  0  0
 14 15  1  6  0  0  0
 14 32  1  0  0  0  0
 15 16  1  0  0  0  0
 15 33  1  1  0  0  0
 17 18  2  0  0  0  0
 17 22  1  0  0  0  0
 18 19  1  0  0  0  0
 18 20  1  0  0  0  0
 19 34  1  0  0  0  0
 19 35  1  0  0  0  0
 20 37  1  0  0  0  0
 20 38  1  0  0  0  0
 21 23  1  0  0  0  0
 23 24  1  0  0  0  0
 23 39  1  6  0  0  0
 24 26  2  0  0  0  0
 24 27  1  0  0  0  0
 26 28  1  0  0  0  0
 26 42  1  0  0  0  0
 27 29  2  0  0  0  0
 27 43  1  0  0  0  0
 28 30  2  0  0  0  0
 28 44  1  0  0  0  0
 29 30  1  0  0  0  0
 29 45  1  0  0  0  0
 30 46  1  0  0  0  0
 31 47  1  0  0  0  0
 31 48  1  0  0  0  0
 31 49  1  0  0  0  0
M  END
