DB01237
 OpenBabel07062211533D

 40 41  0  0  1  0  0  0  0  0999 V2000
   -6.1683    3.2333   -0.5709 Br  0  0  0  0  0  0  0  0  0  0  0  0
    0.1953    0.8326   -0.0892 O   0  0  0  0  0  0  0  0  0  0  0  0
    3.8510    0.3660   -0.0374 N   0  0  0  0  0  0  0  0  0  0  0  0
   -0.9162    0.1774    0.5064 C   0  0  1  0  0  0  0  0  0  0  0  0
   -2.2062    0.9295    0.2422 C   0  0  0  0  0  0  0  0  0  0  0  0
   -0.9734   -1.2689    0.0602 C   0  0  0  0  0  0  0  0  0  0  0  0
    1.4220    0.2122    0.2727 C   0  0  0  0  0  0  0  0  0  0  0  0
    2.5639    0.9604   -0.3962 C   0  0  0  0  0  0  0  0  0  0  0  0
   -3.2268    0.8612    1.1722 C   0  0  0  0  0  0  0  0  0  0  0  0
   -2.3301    1.6639   -0.9228 C   0  0  0  0  0  0  0  0  0  0  0  0
   -1.5119   -2.2165    0.9123 C   0  0  0  0  0  0  0  0  0  0  0  0
   -0.4865   -1.6090   -1.1892 C   0  0  0  0  0  0  0  0  0  0  0  0
    4.9448    1.0784   -0.6969 C   0  0  0  0  0  0  0  0  0  0  0  0
    4.0335    0.3798    1.4135 C   0  0  0  0  0  0  0  0  0  0  0  0
   -4.4140    1.5519    0.9286 C   0  0  0  0  0  0  0  0  0  0  0  0
   -3.5172    2.3547   -1.1663 C   0  0  0  0  0  0  0  0  0  0  0  0
   -1.5647   -3.5485    0.5014 C   0  0  0  0  0  0  0  0  0  0  0  0
   -0.5395   -2.9410   -1.6000 C   0  0  0  0  0  0  0  0  0  0  0  0
   -4.5592    2.2988   -0.2406 C   0  0  0  0  0  0  0  0  0  0  0  0
   -1.0787   -3.9107   -0.7546 C   0  0  0  0  0  0  0  0  0  0  0  0
   -0.7437    0.2068    1.5927 H   0  0  0  0  0  0  0  0  0  0  0  0
    1.4949    0.2861    1.3628 H   0  0  0  0  0  0  0  0  0  0  0  0
    1.4940   -0.8436    0.0020 H   0  0  0  0  0  0  0  0  0  0  0  0
    2.4177    0.9151   -1.4833 H   0  0  0  0  0  0  0  0  0  0  0  0
    2.5169    2.0244   -0.1270 H   0  0  0  0  0  0  0  0  0  0  0  0
   -3.1244    0.2873    2.0882 H   0  0  0  0  0  0  0  0  0  0  0  0
   -1.5360    1.7126   -1.6615 H   0  0  0  0  0  0  0  0  0  0  0  0
   -1.8885   -1.9482    1.8947 H   0  0  0  0  0  0  0  0  0  0  0  0
   -0.0899   -0.8718   -1.8813 H   0  0  0  0  0  0  0  0  0  0  0  0
    5.9054    0.5994   -0.4772 H   0  0  0  0  0  0  0  0  0  0  0  0
    5.0029    2.1278   -0.3853 H   0  0  0  0  0  0  0  0  0  0  0  0
    4.8232    1.0480   -1.7855 H   0  0  0  0  0  0  0  0  0  0  0  0
    3.4033   -0.3631    1.9120 H   0  0  0  0  0  0  0  0  0  0  0  0
    3.8499    1.3677    1.8516 H   0  0  0  0  0  0  0  0  0  0  0  0
    5.0601    0.0910    1.6708 H   0  0  0  0  0  0  0  0  0  0  0  0
   -5.2158    1.4986    1.6605 H   0  0  0  0  0  0  0  0  0  0  0  0
   -3.6152    2.9298   -2.0835 H   0  0  0  0  0  0  0  0  0  0  0  0
   -1.9837   -4.3038    1.1600 H   0  0  0  0  0  0  0  0  0  0  0  0
   -0.1676   -3.2222   -2.5810 H   0  0  0  0  0  0  0  0  0  0  0  0
   -1.1214   -4.9476   -1.0752 H   0  0  0  0  0  0  0  0  0  0  0  0
  1 19  1  0  0  0  0
  2  4  1  0  0  0  0
  2  7  1  0  0  0  0
  3  8  1  0  0  0  0
  3 13  1  0  0  0  0
  3 14  1  0  0  0  0
  4  5  1  0  0  0  0
  4  6  1  0  0  0  0
  4 21  1  1  0  0  0
  5  9  2  0  0  0  0
  5 10  1  0  0  0  0
  6 11  2  0  0  0  0
  6 12  1  0  0  0  0
  7  8  1  0  0  0  0
  7 22  1  0  0  0  0
  7 23  1  0  0  0  0
  8 24  1  0  0  0  0
  8 25  1  0  0  0  0
  9 15  1  0  0  0  0
  9 26  1  0  0  0  0
 10 16  2  0  0  0  0
 10 27  1  0  0  0  0
 11 17  1  0  0  0  0
 11 28  1  0  0  0  0
 12 18  2  0  0  0  0
 12 29  1  0  0  0  0
 13 30  1  0  0  0  0
 13 31  1  0  0  0  0
 13 32  1  0  0  0  0
 14 33  1  0  0  0  0
 14 34  1  0  0  0  0
 14 35  1  0  0  0  0
 15 19  2  0  0  0  0
 15 36  1  0  0  0  0
 16 19  1  0  0  0  0
 16 37  1  0  0  0  0
 17 20  2  0  0  0  0
 17 38  1  0  0  0  0
 18 20  1  0  0  0  0
 18 39  1  0  0  0  0
 20 40  1  0  0  0  0
M  END
