DB01319
 OpenBabel07062211533D

 75 77  0  0  1  0  0  0  0  0999 V2000
   -3.5190   -0.5836   -1.5319 S   0  0  0  0  0  0  0  0  0  0  0  0
    0.7640    2.3869   -2.8683 P   0  0  0  0  0  0  0  0  0  0  0  0
    0.1127    1.8522   -1.4916 O   0  0  0  0  0  0  0  0  0  0  0  0
    3.3145    0.9711    1.4256 O   0  0  0  0  0  0  0  0  0  0  0  0
    5.5646    0.2575    3.3315 O   0  0  0  0  0  0  0  0  0  0  0  0
   -4.6525    0.0363   -2.1929 O   0  0  0  0  0  0  0  0  0  0  0  0
   -2.6468   -1.4645   -2.2867 O   0  0  0  0  0  0  0  0  0  0  0  0
   -0.4277    2.1527   -3.9359 O   0  0  0  0  0  0  0  0  0  0  0  0
    0.7892    3.9935   -2.6857 O   0  0  0  0  0  0  0  0  0  0  0  0
    3.7147    0.9152   -0.8353 O   0  0  0  0  0  0  0  0  0  0  0  0
    2.0776    1.7622   -3.2375 O   0  0  0  0  0  0  0  0  0  0  0  0
   -2.5709    0.6295   -0.7515 N   0  0  0  0  0  0  0  0  0  0  0  0
    1.7475    0.0989    0.0827 N   0  0  0  0  0  0  0  0  0  0  0  0
   -5.6585   -3.7285    3.0709 N   0  0  0  0  0  0  0  0  0  0  0  0
   -0.1956    0.4622   -1.3874 C   0  0  1  0  0  0  0  0  0  0  0  0
    1.1087   -0.3295   -1.1456 C   0  0  2  0  0  0  0  0  0  0  0  0
   -1.2212    0.2518   -0.2705 C   0  0  0  0  0  0  0  0  0  0  0  0
   -3.2636    1.5466    0.1908 C   0  0  0  0  0  0  0  0  0  0  0  0
    0.9027   -1.8557   -1.0914 C   0  0  0  0  0  0  0  0  0  0  0  0
   -2.6305    2.9434    0.1946 C   0  0  0  0  0  0  0  0  0  0  0  0
    2.1668   -2.6516   -1.3011 C   0  0  0  0  0  0  0  0  0  0  0  0
    4.5836    1.5829    1.6291 C   0  0  1  0  0  0  0  0  0  0  0  0
   -4.1526   -1.5157   -0.1659 C   0  0  0  0  0  0  0  0  0  0  0  0
   -2.6790    3.6067   -1.1825 C   0  0  0  0  0  0  0  0  0  0  0  0
   -3.2550    3.8538    1.2529 C   0  0  0  0  0  0  0  0  0  0  0  0
    4.5766    2.3706    2.9163 C   0  0  0  0  0  0  0  0  0  0  0  0
    2.9932    0.6829    0.1291 C   0  0  0  0  0  0  0  0  0  0  0  0
    5.6099    0.5064    1.9158 C   0  0  0  0  0  0  0  0  0  0  0  0
    4.7822    1.2854    3.9541 C   0  0  0  0  0  0  0  0  0  0  0  0
    2.5451   -3.0336   -2.5882 C   0  0  0  0  0  0  0  0  0  0  0  0
    2.9578   -3.0054   -0.2080 C   0  0  0  0  0  0  0  0  0  0  0  0
   -5.3678   -1.1579    0.4184 C   0  0  0  0  0  0  0  0  0  0  0  0
   -3.4375   -2.6080    0.3249 C   0  0  0  0  0  0  0  0  0  0  0  0
    3.7141   -3.7694   -2.7824 C   0  0  0  0  0  0  0  0  0  0  0  0
    4.1269   -3.7413   -0.4022 C   0  0  0  0  0  0  0  0  0  0  0  0
   -5.8677   -1.8927    1.4934 C   0  0  0  0  0  0  0  0  0  0  0  0
   -3.9376   -3.3429    1.4001 C   0  0  0  0  0  0  0  0  0  0  0  0
    4.5051   -4.1232   -1.6894 C   0  0  0  0  0  0  0  0  0  0  0  0
   -5.1527   -2.9853    1.9841 C   0  0  0  0  0  0  0  0  0  0  0  0
   -0.6170    0.1352   -2.3442 H   0  0  0  0  0  0  0  0  0  0  0  0
    1.7985   -0.1304   -1.9668 H   0  0  0  0  0  0  0  0  0  0  0  0
   -0.9382    0.8261    0.6176 H   0  0  0  0  0  0  0  0  0  0  0  0
   -1.2545   -0.7895    0.0566 H   0  0  0  0  0  0  0  0  0  0  0  0
   -4.3155    1.6500   -0.0986 H   0  0  0  0  0  0  0  0  0  0  0  0
   -3.2449    1.1158    1.1993 H   0  0  0  0  0  0  0  0  0  0  0  0
    0.4537   -2.1622   -0.1377 H   0  0  0  0  0  0  0  0  0  0  0  0
    0.1833   -2.1546   -1.8652 H   0  0  0  0  0  0  0  0  0  0  0  0
   -1.5711    2.8583    0.4619 H   0  0  0  0  0  0  0  0  0  0  0  0
    1.2589   -0.0466    0.9611 H   0  0  0  0  0  0  0  0  0  0  0  0
    4.8582    2.2181    0.7801 H   0  0  0  0  0  0  0  0  0  0  0  0
   -2.2249    2.9840   -1.9563 H   0  0  0  0  0  0  0  0  0  0  0  0
   -2.1456    4.5633   -1.1701 H   0  0  0  0  0  0  0  0  0  0  0  0
   -3.7139    3.8041   -1.4829 H   0  0  0  0  0  0  0  0  0  0  0  0
   -3.1589    3.4114    2.2500 H   0  0  0  0  0  0  0  0  0  0  0  0
   -2.7602    4.8306    1.2701 H   0  0  0  0  0  0  0  0  0  0  0  0
   -4.3200    4.0157    1.0547 H   0  0  0  0  0  0  0  0  0  0  0  0
    3.6561    2.9339    3.0933 H   0  0  0  0  0  0  0  0  0  0  0  0
    5.4271    3.0618    2.9363 H   0  0  0  0  0  0  0  0  0  0  0  0
    6.6217    0.8544    1.6833 H   0  0  0  0  0  0  0  0  0  0  0  0
    5.4241   -0.4335    1.3879 H   0  0  0  0  0  0  0  0  0  0  0  0
    5.2972    1.6511    4.8469 H   0  0  0  0  0  0  0  0  0  0  0  0
    3.8289    0.8412    4.2597 H   0  0  0  0  0  0  0  0  0  0  0  0
    1.9388   -2.7615   -3.4482 H   0  0  0  0  0  0  0  0  0  0  0  0
    2.6747   -2.7154    0.8004 H   0  0  0  0  0  0  0  0  0  0  0  0
   -5.9408   -0.3102    0.0542 H   0  0  0  0  0  0  0  0  0  0  0  0
   -2.4895   -2.9053   -0.1143 H   0  0  0  0  0  0  0  0  0  0  0  0
    4.0091   -4.0659   -3.7847 H   0  0  0  0  0  0  0  0  0  0  0  0
    4.7430   -4.0163    0.4490 H   0  0  0  0  0  0  0  0  0  0  0  0
   -6.8155   -1.6039    1.9404 H   0  0  0  0  0  0  0  0  0  0  0  0
   -3.3710   -4.1922    1.7734 H   0  0  0  0  0  0  0  0  0  0  0  0
    5.4155   -4.6956   -1.8405 H   0  0  0  0  0  0  0  0  0  0  0  0
   -0.2513    2.3144   -4.8871 H   0  0  0  0  0  0  0  0  0  0  0  0
    1.2022    4.5441   -3.3846 H   0  0  0  0  0  0  0  0  0  0  0  0
   -5.1403   -4.5204    3.4275 H   0  0  0  0  0  0  0  0  0  0  0  0
   -6.5391   -3.4693    3.4952 H   0  0  0  0  0  0  0  0  0  0  0  0
  1  6  2  0  0  0  0
  1  7  2  0  0  0  0
  1 12  1  0  0  0  0
  1 23  1  0  0  0  0
  2  3  1  0  0  0  0
  2  8  1  0  0  0  0
  2  9  1  0  0  0  0
  2 11  2  0  0  0  0
  3 15  1  0  0  0  0
  4 22  1  0  0  0  0
  4 27  1  0  0  0  0
  5 28  1  0  0  0  0
  5 29  1  0  0  0  0
  8 72  1  0  0  0  0
  9 73  1  0  0  0  0
 10 27  2  0  0  0  0
 12 17  1  0  0  0  0
 12 18  1  0  0  0  0
 13 16  1  0  0  0  0
 13 27  1  0  0  0  0
 13 49  1  0  0  0  0
 14 39  1  0  0  0  0
 14 74  1  0  0  0  0
 14 75  1  0  0  0  0
 15 16  1  0  0  0  0
 15 17  1  0  0  0  0
 15 40  1  6  0  0  0
 16 19  1  0  0  0  0
 16 41  1  6  0  0  0
 17 42  1  0  0  0  0
 17 43  1  0  0  0  0
 18 20  1  0  0  0  0
 18 44  1  0  0  0  0
 18 45  1  0  0  0  0
 19 21  1  0  0  0  0
 19 46  1  0  0  0  0
 19 47  1  0  0  0  0
 20 24  1  0  0  0  0
 20 25  1  0  0  0  0
 20 48  1  0  0  0  0
 21 30  2  0  0  0  0
 21 31  1  0  0  0  0
 22 26  1  0  0  0  0
 22 28  1  0  0  0  0
 22 50  1  6  0  0  0
 23 32  2  0  0  0  0
 23 33  1  0  0  0  0
 24 51  1  0  0  0  0
 24 52  1  0  0  0  0
 24 53  1  0  0  0  0
 25 54  1  0  0  0  0
 25 55  1  0  0  0  0
 25 56  1  0  0  0  0
 26 29  1  0  0  0  0
 26 57  1  0  0  0  0
 26 58  1  0  0  0  0
 28 59  1  0  0  0  0
 28 60  1  0  0  0  0
 29 61  1  0  0  0  0
 29 62  1  0  0  0  0
 30 34  1  0  0  0  0
 30 63  1  0  0  0  0
 31 35  2  0  0  0  0
 31 64  1  0  0  0  0
 32 36  1  0  0  0  0
 32 65  1  0  0  0  0
 33 37  2  0  0  0  0
 33 66  1  0  0  0  0
 34 38  2  0  0  0  0
 34 67  1  0  0  0  0
 35 38  1  0  0  0  0
 35 68  1  0  0  0  0
 36 39  2  0  0  0  0
 36 69  1  0  0  0  0
 37 39  1  0  0  0  0
 37 70  1  0  0  0  0
 38 71  1  0  0  0  0
M  END
