DB01337
 OpenBabel07062211533D

101106  0  0  1  0  0  0  0  0999 V2000
   -4.7169   -2.0095    0.0632 O   0  0  0  0  0  0  0  0  0  0  0  0
    5.7090    1.9754   -0.2159 O   0  0  0  0  0  0  0  0  0  0  0  0
   -3.7262   -3.8043   -1.0019 O   0  0  0  0  0  0  0  0  0  0  0  0
    6.1635    2.9655    1.8212 O   0  0  0  0  0  0  0  0  0  0  0  0
   -5.6921    0.5682    0.0003 N   0  3  0  0  0  0  0  0  0  0  0  0
    5.2998   -0.8753   -0.1291 N   0  3  0  0  0  0  0  0  0  0  0  0
   -2.0957    0.4591   -0.5636 C   0  0  1  0  0  0  0  0  0  0  0  0
   -0.8090    1.0458    0.0277 C   0  0  1  0  0  0  0  0  0  0  0  0
    0.3291   -0.0137   -0.1194 C   0  0  1  0  0  0  0  0  0  0  0  0
   -2.5464   -0.8289    0.1560 C   0  0  1  0  0  0  0  0  0  0  0  0
    1.7163    0.5182    0.4042 C   0  0  2  0  0  0  0  0  0  0  0  0
    2.0289    1.8693   -0.3058 C   0  0  1  0  0  0  0  0  0  0  0  0
   -4.4725    0.2809   -0.8784 C   0  0  2  0  0  0  0  0  0  0  0  0
   -3.8573   -1.1136   -0.6125 C   0  0  2  0  0  0  0  0  0  0  0  0
   -3.3632    1.3113   -0.5926 C   0  0  0  0  0  0  0  0  0  0  0  0
   -0.0833   -1.3951    0.4608 C   0  0  0  0  0  0  0  0  0  0  0  0
   -1.4514   -1.8884   -0.0461 C   0  0  0  0  0  0  0  0  0  0  0  0
   -0.4266    2.3611   -0.6617 C   0  0  0  0  0  0  0  0  0  0  0  0
    2.8456   -0.5031    0.0497 C   0  0  0  0  0  0  0  0  0  0  0  0
    0.9060    2.9045   -0.1585 C   0  0  0  0  0  0  0  0  0  0  0  0
    4.1718    0.1298   -0.3961 C   0  0  1  0  0  0  0  0  0  0  0  0
    3.3785    2.4784    0.1182 C   0  0  0  0  0  0  0  0  0  0  0  0
   -2.8193   -0.6636    1.6715 C   0  0  0  0  0  0  0  0  0  0  0  0
    4.4934    1.4415    0.3084 C   0  0  2  0  0  0  0  0  0  0  0  0
    1.6820    0.6958    1.9453 C   0  0  0  0  0  0  0  0  0  0  0  0
   -6.7799   -0.4804   -0.3120 C   0  0  0  0  0  0  0  0  0  0  0  0
   -6.1761    2.0131   -0.2417 C   0  0  0  0  0  0  0  0  0  0  0  0
   -5.2582    0.4385    1.4622 C   0  0  0  0  0  0  0  0  0  0  0  0
    6.4996   -0.4860   -1.0003 C   0  0  0  0  0  0  0  0  0  0  0  0
    4.7900   -2.2722   -0.5018 C   0  0  0  0  0  0  0  0  0  0  0  0
   -8.1668    0.0868   -0.0561 C   0  0  0  0  0  0  0  0  0  0  0  0
   -7.2131    2.0568   -1.3521 C   0  0  0  0  0  0  0  0  0  0  0  0
    5.6424   -0.7882    1.3580 C   0  0  0  0  0  0  0  0  0  0  0  0
   -8.4659    1.2677   -0.9774 C   0  0  0  0  0  0  0  0  0  0  0  0
    7.6050   -1.5330   -0.9443 C   0  0  0  0  0  0  0  0  0  0  0  0
    5.8997   -3.3146   -0.4465 C   0  0  0  0  0  0  0  0  0  0  0  0
    7.0927   -2.9200   -1.3060 C   0  0  0  0  0  0  0  0  0  0  0  0
   -4.5472   -3.3395   -0.2227 C   0  0  0  0  0  0  0  0  0  0  0  0
    6.4463    2.7205    0.6562 C   0  0  0  0  0  0  0  0  0  0  0  0
   -5.5206   -4.1656    0.5623 C   0  0  0  0  0  0  0  0  0  0  0  0
    7.6861    3.2116   -0.0276 C   0  0  0  0  0  0  0  0  0  0  0  0
   -1.8732    0.2106   -1.6154 H   0  0  0  0  0  0  0  0  0  0  0  0
   -0.9724    1.2595    1.0900 H   0  0  0  0  0  0  0  0  0  0  0  0
    0.4529   -0.1766   -1.2023 H   0  0  0  0  0  0  0  0  0  0  0  0
    2.1083    1.6560   -1.3832 H   0  0  0  0  0  0  0  0  0  0  0  0
   -4.8060    0.3574   -1.9209 H   0  0  0  0  0  0  0  0  0  0  0  0
   -3.6092   -1.5147   -1.6065 H   0  0  0  0  0  0  0  0  0  0  0  0
   -3.3041    2.0318   -1.4179 H   0  0  0  0  0  0  0  0  0  0  0  0
   -3.4423    1.9023    0.3197 H   0  0  0  0  0  0  0  0  0  0  0  0
    0.6612   -2.1491    0.1795 H   0  0  0  0  0  0  0  0  0  0  0  0
   -0.0740   -1.3740    1.5524 H   0  0  0  0  0  0  0  0  0  0  0  0
   -1.7093   -2.8180    0.4746 H   0  0  0  0  0  0  0  0  0  0  0  0
   -1.3577   -2.1389   -1.1106 H   0  0  0  0  0  0  0  0  0  0  0  0
   -0.3677    2.2108   -1.7472 H   0  0  0  0  0  0  0  0  0  0  0  0
   -1.2020    3.1166   -0.4899 H   0  0  0  0  0  0  0  0  0  0  0  0
    2.4927   -1.1319   -0.7780 H   0  0  0  0  0  0  0  0  0  0  0  0
    2.9418   -1.1559    0.9217 H   0  0  0  0  0  0  0  0  0  0  0  0
    0.8045    3.2198    0.8865 H   0  0  0  0  0  0  0  0  0  0  0  0
    1.1579    3.8063   -0.7303 H   0  0  0  0  0  0  0  0  0  0  0  0
    4.1426    0.2824   -1.4837 H   0  0  0  0  0  0  0  0  0  0  0  0
    3.6756    3.2228   -0.6329 H   0  0  0  0  0  0  0  0  0  0  0  0
    3.2639    3.0478    1.0502 H   0  0  0  0  0  0  0  0  0  0  0  0
   -1.9015   -0.8816    2.2306 H   0  0  0  0  0  0  0  0  0  0  0  0
   -3.4850   -1.4199    2.0911 H   0  0  0  0  0  0  0  0  0  0  0  0
   -2.9808    0.3535    2.0081 H   0  0  0  0  0  0  0  0  0  0  0  0
    4.5651    1.3014    1.3903 H   0  0  0  0  0  0  0  0  0  0  0  0
    0.8890    1.3757    2.2676 H   0  0  0  0  0  0  0  0  0  0  0  0
    1.5205   -0.2560    2.4612 H   0  0  0  0  0  0  0  0  0  0  0  0
    2.6180    1.0963    2.3416 H   0  0  0  0  0  0  0  0  0  0  0  0
   -6.6895   -1.3273    0.3685 H   0  0  0  0  0  0  0  0  0  0  0  0
   -6.6773   -0.8031   -1.3543 H   0  0  0  0  0  0  0  0  0  0  0  0
   -5.3349    2.6685   -0.4725 H   0  0  0  0  0  0  0  0  0  0  0  0
   -6.6260    2.3751    0.6911 H   0  0  0  0  0  0  0  0  0  0  0  0
   -5.1286   -0.5887    1.7654 H   0  0  0  0  0  0  0  0  0  0  0  0
   -6.1577    0.7077    2.0373 H   0  0  0  0  0  0  0  0  0  0  0  0
   -4.5701    1.2257    1.7503 H   0  0  0  0  0  0  0  0  0  0  0  0
    6.1475   -0.3543   -2.0294 H   0  0  0  0  0  0  0  0  0  0  0  0
    6.9708    0.4183   -0.6392 H   0  0  0  0  0  0  0  0  0  0  0  0
    4.3816   -2.2162   -1.5181 H   0  0  0  0  0  0  0  0  0  0  0  0
    4.0242   -2.6029    0.2028 H   0  0  0  0  0  0  0  0  0  0  0  0
   -8.9254   -0.6903   -0.2060 H   0  0  0  0  0  0  0  0  0  0  0  0
   -8.2575    0.4056    0.9894 H   0  0  0  0  0  0  0  0  0  0  0  0
   -7.4913    3.0952   -1.5655 H   0  0  0  0  0  0  0  0  0  0  0  0
   -6.7869    1.6554   -2.2793 H   0  0  0  0  0  0  0  0  0  0  0  0
    6.2554    0.0926    1.5600 H   0  0  0  0  0  0  0  0  0  0  0  0
    6.2558   -1.6521    1.6238 H   0  0  0  0  0  0  0  0  0  0  0  0
    4.7386   -0.8188    1.9704 H   0  0  0  0  0  0  0  0  0  0  0  0
   -9.1910    1.9263   -0.4842 H   0  0  0  0  0  0  0  0  0  0  0  0
   -8.9484    0.9136   -1.8964 H   0  0  0  0  0  0  0  0  0  0  0  0
    8.0534   -1.5576    0.0563 H   0  0  0  0  0  0  0  0  0  0  0  0
    8.4076   -1.2511   -1.6359 H   0  0  0  0  0  0  0  0  0  0  0  0
    5.5050   -4.2731   -0.8045 H   0  0  0  0  0  0  0  0  0  0  0  0
    6.2254   -3.4922    0.5840 H   0  0  0  0  0  0  0  0  0  0  0  0
    6.8011   -2.9358   -2.3634 H   0  0  0  0  0  0  0  0  0  0  0  0
    7.8958   -3.6559   -1.1868 H   0  0  0  0  0  0  0  0  0  0  0  0
   -5.4201   -3.9434    1.6279 H   0  0  0  0  0  0  0  0  0  0  0  0
   -5.3022   -5.2263    0.4096 H   0  0  0  0  0  0  0  0  0  0  0  0
   -6.5381   -3.9613    0.2208 H   0  0  0  0  0  0  0  0  0  0  0  0
    8.3772    2.3809   -0.1875 H   0  0  0  0  0  0  0  0  0  0  0  0
    8.1724    3.9621    0.6022 H   0  0  0  0  0  0  0  0  0  0  0  0
    7.4264    3.6842   -0.9785 H   0  0  0  0  0  0  0  0  0  0  0  0
  1 14  1  0  0  0  0
  1 38  1  0  0  0  0
  2 24  1  0  0  0  0
  2 39  1  0  0  0  0
  3 38  2  0  0  0  0
  4 39  2  0  0  0  0
  5 13  1  0  0  0  0
  5 26  1  0  0  0  0
  5 27  1  0  0  0  0
  5 28  1  0  0  0  0
  6 21  1  0  0  0  0
  6 29  1  0  0  0  0
  6 30  1  0  0  0  0
  6 33  1  0  0  0  0
  7  8  1  1  0  0  0
  7 15  1  0  0  0  0
  7 42  1  0  0  0  0
  8  9  1  6  0  0  0
  8 18  1  0  0  0  0
  8 43  1  0  0  0  0
  9 11  1  1  0  0  0
  9 16  1  0  0  0  0
  9 44  1  0  0  0  0
 10  7  1  6  0  0  0
 10 17  1  0  0  0  0
 10 23  1  0  0  0  0
 11 12  1  6  0  0  0
 11 19  1  0  0  0  0
 11 25  1  0  0  0  0
 12 20  1  0  0  0  0
 12 22  1  0  0  0  0
 12 45  1  6  0  0  0
 13 14  1  1  0  0  0
 13 15  1  0  0  0  0
 13 46  1  0  0  0  0
 14 10  1  1  0  0  0
 14 47  1  0  0  0  0
 15 48  1  0  0  0  0
 15 49  1  0  0  0  0
 16 17  1  0  0  0  0
 16 50  1  0  0  0  0
 16 51  1  0  0  0  0
 17 52  1  0  0  0  0
 17 53  1  0  0  0  0
 18 20  1  0  0  0  0
 18 54  1  0  0  0  0
 18 55  1  0  0  0  0
 19 21  1  0  0  0  0
 19 56  1  0  0  0  0
 19 57  1  0  0  0  0
 20 58  1  0  0  0  0
 20 59  1  0  0  0  0
 21 24  1  1  0  0  0
 21 60  1  0  0  0  0
 22 24  1  0  0  0  0
 22 61  1  0  0  0  0
 22 62  1  0  0  0  0
 23 63  1  0  0  0  0
 23 64  1  0  0  0  0
 23 65  1  0  0  0  0
 24 66  1  1  0  0  0
 25 67  1  0  0  0  0
 25 68  1  0  0  0  0
 25 69  1  0  0  0  0
 26 31  1  0  0  0  0
 26 70  1  0  0  0  0
 26 71  1  0  0  0  0
 27 32  1  0  0  0  0
 27 72  1  0  0  0  0
 27 73  1  0  0  0  0
 28 74  1  0  0  0  0
 28 75  1  0  0  0  0
 28 76  1  0  0  0  0
 29 35  1  0  0  0  0
 29 77  1  0  0  0  0
 29 78  1  0  0  0  0
 30 36  1  0  0  0  0
 30 79  1  0  0  0  0
 30 80  1  0  0  0  0
 31 34  1  0  0  0  0
 31 81  1  0  0  0  0
 31 82  1  0  0  0  0
 32 34  1  0  0  0  0
 32 83  1  0  0  0  0
 32 84  1  0  0  0  0
 33 85  1  0  0  0  0
 33 86  1  0  0  0  0
 33 87  1  0  0  0  0
 34 88  1  0  0  0  0
 34 89  1  0  0  0  0
 35 37  1  0  0  0  0
 35 90  1  0  0  0  0
 35 91  1  0  0  0  0
 36 37  1  0  0  0  0
 36 92  1  0  0  0  0
 36 93  1  0  0  0  0
 37 94  1  0  0  0  0
 37 95  1  0  0  0  0
 38 40  1  0  0  0  0
 39 41  1  0  0  0  0
 40 96  1  0  0  0  0
 40 97  1  0  0  0  0
 40 98  1  0  0  0  0
 41 99  1  0  0  0  0
 41100  1  0  0  0  0
 41101  1  0  0  0  0
M  CHG  2   5   1   6   1
M  END
