DB01603
 OpenBabel07062211533D

 46 48  0  0  1  0  0  0  0  0999 V2000
    1.7181    1.0805   -0.4523 S   0  0  0  0  0  0  0  0  0  0  0  0
    1.4192   -3.1310    0.8068 O   0  0  0  0  0  0  0  0  0  0  0  0
    5.6244   -0.9551    1.3091 O   0  0  0  0  0  0  0  0  0  0  0  0
    4.9749   -2.3430   -0.3784 O   0  0  0  0  0  0  0  0  0  0  0  0
   -2.0734   -0.7133   -1.9672 O   0  0  0  0  0  0  0  0  0  0  0  0
   -1.9773    2.2517   -0.4216 O   0  0  0  0  0  0  0  0  0  0  0  0
   -3.7176   -2.0932    0.6380 O   0  0  0  0  0  0  0  0  0  0  0  0
    2.4967   -1.3925   -0.3708 N   0  0  0  0  0  0  0  0  0  0  0  0
   -0.6318   -0.8737   -0.1603 N   0  0  0  0  0  0  0  0  0  0  0  0
    1.6718   -0.5636   -1.2547 C   0  0  1  0  0  0  0  0  0  0  0  0
    3.4344    0.7582    0.1962 C   0  0  0  0  0  0  0  0  0  0  0  0
    3.4164   -0.7459    0.5432 C   0  0  2  0  0  0  0  0  0  0  0  0
    0.4888   -1.4740   -0.8977 C   0  0  1  0  0  0  0  0  0  0  0  0
    1.4885   -2.2373   -0.0060 C   0  0  0  0  0  0  0  0  0  0  0  0
    4.4344    1.1469   -0.9011 C   0  0  0  0  0  0  0  0  0  0  0  0
    3.6642    1.6154    1.4422 C   0  0  0  0  0  0  0  0  0  0  0  0
    4.7311   -1.4473    0.4162 C   0  0  0  0  0  0  0  0  0  0  0  0
   -1.8198   -0.5479   -0.7768 C   0  0  0  0  0  0  0  0  0  0  0  0
   -2.8417    0.0754    0.1031 C   0  0  0  0  0  0  0  0  0  0  0  0
   -2.8642    1.4506    0.2335 C   0  0  0  0  0  0  0  0  0  0  0  0
   -3.7407   -0.7366    0.7672 C   0  0  0  0  0  0  0  0  0  0  0  0
   -3.8229    2.0365    1.0604 C   0  0  0  0  0  0  0  0  0  0  0  0
   -4.6993   -0.1507    1.5940 C   0  0  0  0  0  0  0  0  0  0  0  0
   -4.7404    1.2358    1.7405 C   0  0  0  0  0  0  0  0  0  0  0  0
   -2.3555    2.7124   -1.7170 C   0  0  0  0  0  0  0  0  0  0  0  0
   -4.5062   -2.6577   -0.4076 C   0  0  0  0  0  0  0  0  0  0  0  0
    2.0028   -0.5940   -2.2967 H   0  0  0  0  0  0  0  0  0  0  0  0
    3.0396   -0.9227    1.5598 H   0  0  0  0  0  0  0  0  0  0  0  0
    0.1462   -2.0970   -1.7335 H   0  0  0  0  0  0  0  0  0  0  0  0
    4.3264    0.5279   -1.7989 H   0  0  0  0  0  0  0  0  0  0  0  0
    4.3130    2.1950   -1.2005 H   0  0  0  0  0  0  0  0  0  0  0  0
    5.4676    1.0383   -0.5530 H   0  0  0  0  0  0  0  0  0  0  0  0
    3.5834    2.6849    1.2146 H   0  0  0  0  0  0  0  0  0  0  0  0
    2.9402    1.3870    2.2332 H   0  0  0  0  0  0  0  0  0  0  0  0
    4.6640    1.4497    1.8576 H   0  0  0  0  0  0  0  0  0  0  0  0
   -0.5353   -0.6771    0.8335 H   0  0  0  0  0  0  0  0  0  0  0  0
    6.4948   -1.4020    1.2410 H   0  0  0  0  0  0  0  0  0  0  0  0
   -3.8605    3.1158    1.1802 H   0  0  0  0  0  0  0  0  0  0  0  0
   -5.4169   -0.7679    2.1278 H   0  0  0  0  0  0  0  0  0  0  0  0
   -5.4866    1.6920    2.3844 H   0  0  0  0  0  0  0  0  0  0  0  0
   -1.4991    3.2285   -2.1595 H   0  0  0  0  0  0  0  0  0  0  0  0
   -3.1861    3.4207   -1.6361 H   0  0  0  0  0  0  0  0  0  0  0  0
   -2.6380    1.8818   -2.3703 H   0  0  0  0  0  0  0  0  0  0  0  0
   -4.3063   -3.7320   -0.4443 H   0  0  0  0  0  0  0  0  0  0  0  0
   -4.2510   -2.2220   -1.3779 H   0  0  0  0  0  0  0  0  0  0  0  0
   -5.5704   -2.5077   -0.2004 H   0  0  0  0  0  0  0  0  0  0  0  0
  1 10  1  0  0  0  0
  1 11  1  0  0  0  0
  2 14  2  0  0  0  0
  3 17  1  0  0  0  0
  3 37  1  0  0  0  0
  4 17  2  0  0  0  0
  5 18  2  0  0  0  0
  6 20  1  0  0  0  0
  6 25  1  0  0  0  0
  7 21  1  0  0  0  0
  7 26  1  0  0  0  0
  8 10  1  0  0  0  0
  8 12  1  0  0  0  0
  8 14  1  0  0  0  0
  9 13  1  0  0  0  0
  9 18  1  0  0  0  0
  9 36  1  0  0  0  0
 10 13  1  1  0  0  0
 10 27  1  0  0  0  0
 11 12  1  0  0  0  0
 11 15  1  0  0  0  0
 11 16  1  0  0  0  0
 12 17  1  0  0  0  0
 12 28  1  1  0  0  0
 13 14  1  0  0  0  0
 13 29  1  6  0  0  0
 15 30  1  0  0  0  0
 15 31  1  0  0  0  0
 15 32  1  0  0  0  0
 16 33  1  0  0  0  0
 16 34  1  0  0  0  0
 16 35  1  0  0  0  0
 18 19  1  0  0  0  0
 19 20  2  0  0  0  0
 19 21  1  0  0  0  0
 20 22  1  0  0  0  0
 21 23  2  0  0  0  0
 22 24  2  0  0  0  0
 22 38  1  0  0  0  0
 23 24  1  0  0  0  0
 23 39  1  0  0  0  0
 24 40  1  0  0  0  0
 25 41  1  0  0  0  0
 25 42  1  0  0  0  0
 25 43  1  0  0  0  0
 26 44  1  0  0  0  0
 26 45  1  0  0  0  0
 26 46  1  0  0  0  0
M  END
