DB01059
 OpenBabel07062211533D

 41 43  0  0  1  0  0  0  0  0999 V2000
    1.3853   -3.0250    0.6941 F   0  0  0  0  0  0  0  0  0  0  0  0
   -3.6383   -3.1234    0.5100 O   0  0  0  0  0  0  0  0  0  0  0  0
   -6.1412   -2.4253    0.2345 O   0  0  0  0  0  0  0  0  0  0  0  0
   -6.5730   -0.2468   -0.3150 O   0  0  0  0  0  0  0  0  0  0  0  0
    2.1270   -0.4232    0.0883 N   0  0  0  0  0  0  0  0  0  0  0  0
    4.8135    0.3937   -0.1790 N   0  3  0  0  0  0  0  0  0  0  0  0
   -2.6161    0.7219   -0.3882 N   0  0  0  0  0  0  0  0  0  0  0  0
    2.5000    0.9559    0.4275 C   0  0  0  0  0  0  0  0  0  0  0  0
    3.0035   -1.1139   -0.8698 C   0  0  0  0  0  0  0  0  0  0  0  0
    3.9566    1.0264    0.8643 C   0  0  0  0  0  0  0  0  0  0  0  0
    4.4557   -1.0335   -0.4226 C   0  0  0  0  0  0  0  0  0  0  0  0
    0.7802   -0.8031    0.1254 C   0  0  0  0  0  0  0  0  0  0  0  0
   -0.2141    0.1423   -0.1466 C   0  0  0  0  0  0  0  0  0  0  0  0
   -1.5777   -0.2010   -0.1195 C   0  0  0  0  0  0  0  0  0  0  0  0
    0.4364   -2.1155    0.4314 C   0  0  0  0  0  0  0  0  0  0  0  0
   -1.8995   -1.5424    0.1944 C   0  0  0  0  0  0  0  0  0  0  0  0
   -0.9032   -2.4896    0.4671 C   0  0  0  0  0  0  0  0  0  0  0  0
   -2.2655    2.1031   -0.7100 C   0  0  0  0  0  0  0  0  0  0  0  0
   -3.3230   -1.9714    0.2402 C   0  0  0  0  0  0  0  0  0  0  0  0
   -3.9311    0.2965   -0.3385 C   0  0  0  0  0  0  0  0  0  0  0  0
   -4.3460   -0.9407   -0.0538 C   0  0  2  0  0  0  0  0  0  0  0  0
   -2.1898    2.9611    0.5360 C   0  0  0  0  0  0  0  0  0  0  0  0
   -5.8288   -1.2321   -0.0438 C   0  0  0  0  0  0  0  0  0  0  0  0
    1.8846    1.3361    1.2524 H   0  0  0  0  0  0  0  0  0  0  0  0
    2.3450    1.6084   -0.4412 H   0  0  0  0  0  0  0  0  0  0  0  0
    2.8880   -0.6474   -1.8569 H   0  0  0  0  0  0  0  0  0  0  0  0
    2.7418   -2.1706   -0.9888 H   0  0  0  0  0  0  0  0  0  0  0  0
    4.2941    2.0609    0.9767 H   0  0  0  0  0  0  0  0  0  0  0  0
    4.1321    0.4840    1.7995 H   0  0  0  0  0  0  0  0  0  0  0  0
    4.6295   -1.5760    0.5129 H   0  0  0  0  0  0  0  0  0  0  0  0
    5.1359   -1.4094   -1.1924 H   0  0  0  0  0  0  0  0  0  0  0  0
    5.8000    0.4536    0.1080 H   0  0  0  0  0  0  0  0  0  0  0  0
    4.7444    0.9261   -1.0577 H   0  0  0  0  0  0  0  0  0  0  0  0
    0.0878    1.1561   -0.3834 H   0  0  0  0  0  0  0  0  0  0  0  0
   -1.1525   -3.5192    0.7083 H   0  0  0  0  0  0  0  0  0  0  0  0
   -1.3609    2.1925   -1.3202 H   0  0  0  0  0  0  0  0  0  0  0  0
   -3.0480    2.5278   -1.3545 H   0  0  0  0  0  0  0  0  0  0  0  0
   -4.6207    1.1040   -0.5599 H   0  0  0  0  0  0  0  0  0  0  0  0
   -3.1368    2.9462    1.0860 H   0  0  0  0  0  0  0  0  0  0  0  0
   -1.4052    2.6133    1.2154 H   0  0  0  0  0  0  0  0  0  0  0  0
   -1.9701    3.9997    0.2695 H   0  0  0  0  0  0  0  0  0  0  0  0
  1 15  1  0  0  0  0
  2 19  2  0  0  0  0
  3 23  2  0  0  0  0
  4 23  1  0  0  0  0
  5  8  1  0  0  0  0
  5  9  1  0  0  0  0
  5 12  1  0  0  0  0
  6 10  1  0  0  0  0
  6 11  1  0  0  0  0
  6 32  1  0  0  0  0
  6 33  1  0  0  0  0
  7 14  1  0  0  0  0
  7 18  1  0  0  0  0
  7 20  2  0  0  0  0
  8 10  1  0  0  0  0
  8 24  1  0  0  0  0
  8 25  1  0  0  0  0
  9 11  1  0  0  0  0
  9 26  1  0  0  0  0
  9 27  1  0  0  0  0
 10 28  1  0  0  0  0
 10 29  1  0  0  0  0
 11 30  1  0  0  0  0
 11 31  1  0  0  0  0
 12 13  2  0  0  0  0
 12 15  1  0  0  0  0
 13 14  1  0  0  0  0
 13 34  1  0  0  0  0
 14 16  2  0  0  0  0
 15 17  2  0  0  0  0
 16 17  1  0  0  0  0
 16 19  1  0  0  0  0
 17 35  1  0  0  0  0
 18 22  1  0  0  0  0
 18 36  1  0  0  0  0
 18 37  1  0  0  0  0
 19 21  1  0  0  0  0
 20 21  1  0  0  0  0
 20 38  1  0  0  0  0
 21 23  1  1  0  0  0
 22 39  1  0  0  0  0
 22 40  1  0  0  0  0
 22 41  1  0  0  0  0
M  CHG  1   6   1
M  END
