DB01137
 OpenBabel07062211533D

 46 49  0  0  1  0  0  0  0  0999 V2000
    0.8320    3.2448   -0.2387 F   0  0  0  0  0  0  0  0  0  0  0  0
   -0.2040   -1.3444    0.2665 O   0  0  0  0  0  0  0  0  0  0  0  0
   -4.2174    3.1345   -0.0364 O   0  0  0  0  0  0  0  0  0  0  0  0
   -6.6877    2.2733    0.0763 O   0  0  0  0  0  0  0  0  0  0  0  0
   -7.0126    0.0142    0.2322 O   0  0  0  0  0  0  0  0  0  0  0  0
    4.4708    0.1688    0.0385 N   0  3  1  0  0  0  0  0  0  0  0  0
    1.6670    0.6262   -0.0132 N   0  0  0  0  0  0  0  0  0  0  0  0
   -3.0143   -0.7473    0.2187 N   0  0  0  0  0  0  0  0  0  0  0  0
    3.7141    0.0785   -1.2617 C   0  0  0  0  0  0  0  0  0  0  0  0
    3.6112   -0.2772    1.1940 C   0  0  0  0  0  0  0  0  0  0  0  0
    2.4759    0.9629   -1.1889 C   0  0  0  0  0  0  0  0  0  0  0  0
    2.3764    0.6103    1.2729 C   0  0  0  0  0  0  0  0  0  0  0  0
    0.3038    0.9433    0.0020 C   0  0  0  0  0  0  0  0  0  0  0  0
   -0.6615   -0.0551    0.1435 C   0  0  0  0  0  0  0  0  0  0  0  0
   -2.0293    0.2573    0.1335 C   0  0  0  0  0  0  0  0  0  0  0  0
   -2.5295   -2.1301    0.1993 C   0  0  2  0  0  0  0  0  0  0  0  0
    5.7706   -0.5836   -0.0159 C   0  0  0  0  0  0  0  0  0  0  0  0
   -1.1679   -2.1970    0.8928 C   0  0  0  0  0  0  0  0  0  0  0  0
   -2.4046    1.6105    0.0282 C   0  0  0  0  0  0  0  0  0  0  0  0
   -0.0870    2.2763   -0.1135 C   0  0  0  0  0  0  0  0  0  0  0  0
   -1.4395    2.6155   -0.0938 C   0  0  0  0  0  0  0  0  0  0  0  0
   -4.3492   -0.3973    0.2169 C   0  0  0  0  0  0  0  0  0  0  0  0
   -2.4679   -2.6451   -1.2411 C   0  0  0  0  0  0  0  0  0  0  0  0
   -3.8479    1.9697    0.0384 C   0  0  0  0  0  0  0  0  0  0  0  0
   -4.8214    0.8510    0.1412 C   0  0  1  0  0  0  0  0  0  0  0  0
   -6.3169    1.0669    0.1509 C   0  0  0  0  0  0  0  0  0  0  0  0
    4.7103    1.1581    0.1918 H   0  0  0  0  0  0  0  0  0  0  0  0
    3.4525   -0.9743   -1.4193 H   0  0  0  0  0  0  0  0  0  0  0  0
    4.3832    0.4141   -2.0608 H   0  0  0  0  0  0  0  0  0  0  0  0
    4.2093   -0.1905    2.1069 H   0  0  0  0  0  0  0  0  0  0  0  0
    3.3478   -1.3275    1.0246 H   0  0  0  0  0  0  0  0  0  0  0  0
    2.7747    2.0175   -1.1475 H   0  0  0  0  0  0  0  0  0  0  0  0
    1.8919    0.8210   -2.1065 H   0  0  0  0  0  0  0  0  0  0  0  0
    1.7255    0.2281    2.0689 H   0  0  0  0  0  0  0  0  0  0  0  0
    2.6595    1.6345    1.5465 H   0  0  0  0  0  0  0  0  0  0  0  0
   -3.2224   -2.7701    0.7610 H   0  0  0  0  0  0  0  0  0  0  0  0
    6.2908   -0.4293    0.9331 H   0  0  0  0  0  0  0  0  0  0  0  0
    5.5555   -1.6432   -0.1778 H   0  0  0  0  0  0  0  0  0  0  0  0
    6.3647   -0.1738   -0.8368 H   0  0  0  0  0  0  0  0  0  0  0  0
   -1.2476   -1.9217    1.9530 H   0  0  0  0  0  0  0  0  0  0  0  0
   -0.7738   -3.2185    0.8562 H   0  0  0  0  0  0  0  0  0  0  0  0
   -1.7204    3.6612   -0.1803 H   0  0  0  0  0  0  0  0  0  0  0  0
   -4.9908   -1.2692    0.2811 H   0  0  0  0  0  0  0  0  0  0  0  0
   -1.8076   -2.0376   -1.8691 H   0  0  0  0  0  0  0  0  0  0  0  0
   -2.1041   -3.6775   -1.2665 H   0  0  0  0  0  0  0  0  0  0  0  0
   -3.4621   -2.6285   -1.7014 H   0  0  0  0  0  0  0  0  0  0  0  0
  1 20  1  0  0  0  0
  2 14  1  0  0  0  0
  2 18  1  0  0  0  0
  3 24  2  0  0  0  0
  4 26  2  0  0  0  0
  5 26  1  0  0  0  0
  6  9  1  0  0  0  0
  6 10  1  0  0  0  0
  6 17  1  0  0  0  0
  6 27  1  1  0  0  0
  7 11  1  0  0  0  0
  7 12  1  0  0  0  0
  7 13  1  0  0  0  0
  8 15  1  0  0  0  0
  8 16  1  0  0  0  0
  8 22  2  0  0  0  0
  9 11  1  0  0  0  0
  9 28  1  0  0  0  0
  9 29  1  0  0  0  0
 10 12  1  0  0  0  0
 10 30  1  0  0  0  0
 10 31  1  0  0  0  0
 11 32  1  0  0  0  0
 11 33  1  0  0  0  0
 12 34  1  0  0  0  0
 12 35  1  0  0  0  0
 13 14  2  0  0  0  0
 13 20  1  0  0  0  0
 14 15  1  0  0  0  0
 15 19  2  0  0  0  0
 16 18  1  0  0  0  0
 16 23  1  0  0  0  0
 16 36  1  1  0  0  0
 17 37  1  0  0  0  0
 17 38  1  0  0  0  0
 17 39  1  0  0  0  0
 18 40  1  0  0  0  0
 18 41  1  0  0  0  0
 19 21  1  0  0  0  0
 19 24  1  0  0  0  0
 20 21  2  0  0  0  0
 21 42  1  0  0  0  0
 22 25  1  0  0  0  0
 22 43  1  0  0  0  0
 23 44  1  0  0  0  0
 23 45  1  0  0  0  0
 23 46  1  0  0  0  0
 24 25  1  0  0  0  0
 25 26  1  6  0  0  0
M  CHG  1   6   1
M  END
