DB01001
 OpenBabel07062211533D

 38 38  0  0  1  0  0  0  0  0999 V2000
    0.3023   -2.2323   -2.1747 O   0  0  0  0  0  0  0  0  0  0  0  0
    4.4863    0.1638    1.7869 O   0  0  0  0  0  0  0  0  0  0  0  0
    4.5097    1.1780   -1.4464 O   0  0  0  0  0  0  0  0  0  0  0  0
   -1.6037   -0.4134    0.4341 N   0  0  0  0  0  0  0  0  0  0  0  0
   -2.6835    0.5775    0.3781 C   0  0  0  0  0  0  0  0  0  0  0  0
   -1.2036   -0.8092   -0.9055 C   0  0  0  0  0  0  0  0  0  0  0  0
   -0.0772   -1.8485   -0.8538 C   0  0  2  0  0  0  0  0  0  0  0  0
   -3.0616    0.9697    1.8104 C   0  0  0  0  0  0  0  0  0  0  0  0
   -2.1798    1.8056   -0.3876 C   0  0  0  0  0  0  0  0  0  0  0  0
   -3.8949   -0.0302   -0.3388 C   0  0  0  0  0  0  0  0  0  0  0  0
    1.1465   -1.3050   -0.1492 C   0  0  0  0  0  0  0  0  0  0  0  0
    1.7498   -0.1562   -0.6311 C   0  0  0  0  0  0  0  0  0  0  0  0
    1.6362   -1.9686    0.9625 C   0  0  0  0  0  0  0  0  0  0  0  0
    2.8777    0.3446    0.0191 C   0  0  0  0  0  0  0  0  0  0  0  0
    3.3849   -0.3111    1.1409 C   0  0  0  0  0  0  0  0  0  0  0  0
    2.7640   -1.4677    1.6126 C   0  0  0  0  0  0  0  0  0  0  0  0
    3.5297    1.5837   -0.4993 C   0  0  0  0  0  0  0  0  0  0  0  0
   -2.0220   -1.2871   -1.4553 H   0  0  0  0  0  0  0  0  0  0  0  0
   -0.8685    0.0251   -1.5282 H   0  0  0  0  0  0  0  0  0  0  0  0
   -1.9080   -1.2328    0.9592 H   0  0  0  0  0  0  0  0  0  0  0  0
   -0.4349   -2.7553   -0.3497 H   0  0  0  0  0  0  0  0  0  0  0  0
   -3.4162    0.1037    2.3818 H   0  0  0  0  0  0  0  0  0  0  0  0
   -3.8610    1.7193    1.8183 H   0  0  0  0  0  0  0  0  0  0  0  0
   -2.2049    1.3949    2.3464 H   0  0  0  0  0  0  0  0  0  0  0  0
   -2.1242    1.6571   -1.4710 H   0  0  0  0  0  0  0  0  0  0  0  0
   -1.1967    2.1338   -0.0288 H   0  0  0  0  0  0  0  0  0  0  0  0
   -2.8662    2.6489   -0.2401 H   0  0  0  0  0  0  0  0  0  0  0  0
   -3.7583   -0.1319   -1.4204 H   0  0  0  0  0  0  0  0  0  0  0  0
   -4.7729    0.6148   -0.2082 H   0  0  0  0  0  0  0  0  0  0  0  0
   -4.1595   -1.0118    0.0719 H   0  0  0  0  0  0  0  0  0  0  0  0
    1.3696    0.3501   -1.5138 H   0  0  0  0  0  0  0  0  0  0  0  0
    1.1613   -2.8696    1.3394 H   0  0  0  0  0  0  0  0  0  0  0  0
   -0.4889   -2.5856   -2.6160 H   0  0  0  0  0  0  0  0  0  0  0  0
    3.1542   -1.9834    2.4859 H   0  0  0  0  0  0  0  0  0  0  0  0
    2.7982    2.2215   -1.0090 H   0  0  0  0  0  0  0  0  0  0  0  0
    3.9890    2.1947    0.2836 H   0  0  0  0  0  0  0  0  0  0  0  0
    5.0087    0.7257    1.1928 H   0  0  0  0  0  0  0  0  0  0  0  0
    4.9187    1.9875   -1.7972 H   0  0  0  0  0  0  0  0  0  0  0  0
  1  7  1  0  0  0  0
  1 33  1  0  0  0  0
  2 15  1  0  0  0  0
  2 37  1  0  0  0  0
  3 17  1  0  0  0  0
  3 38  1  0  0  0  0
  4  5  1  0  0  0  0
  4  6  1  0  0  0  0
  4 20  1  0  0  0  0
  5  8  1  0  0  0  0
  5  9  1  0  0  0  0
  5 10  1  0  0  0  0
  6  7  1  0  0  0  0
  6 18  1  0  0  0  0
  6 19  1  0  0  0  0
  7 11  1  0  0  0  0
  7 21  1  1  0  0  0
  8 22  1  0  0  0  0
  8 23  1  0  0  0  0
  8 24  1  0  0  0  0
  9 25  1  0  0  0  0
  9 26  1  0  0  0  0
  9 27  1  0  0  0  0
 10 28  1  0  0  0  0
 10 29  1  0  0  0  0
 10 30  1  0  0  0  0
 11 12  2  0  0  0  0
 11 13  1  0  0  0  0
 12 14  1  0  0  0  0
 12 31  1  0  0  0  0
 13 16  2  0  0  0  0
 13 32  1  0  0  0  0
 14 15  2  0  0  0  0
 14 17  1  0  0  0  0
 15 16  1  0  0  0  0
 16 34  1  0  0  0  0
 17 35  1  0  0  0  0
 17 36  1  0  0  0  0
M  END
