DB01010
 OpenBabel07062211533D

 28 28  0  0  0  0  0  0  0  0999 V2000
   -3.2290   -1.8445   -0.7039 O   0  0  0  0  0  0  0  0  0  0  0  0
    1.1066    0.2898   -0.3186 N   0  3  0  0  0  0  0  0  0  0  0  0
    1.6817   -1.1202   -0.2009 C   0  0  0  0  0  0  0  0  0  0  0  0
   -0.4119    0.3130   -0.1276 C   0  0  0  0  0  0  0  0  0  0  0  0
    1.7500    1.1571    0.7595 C   0  0  0  0  0  0  0  0  0  0  0  0
    1.4347    0.8216   -1.7109 C   0  0  0  0  0  0  0  0  0  0  0  0
    1.3937   -1.6621    1.1820 C   0  0  0  0  0  0  0  0  0  0  0  0
   -1.0959   -0.7907   -0.5131 C   0  0  0  0  0  0  0  0  0  0  0  0
   -0.9441    1.4369    0.4100 C   0  0  0  0  0  0  0  0  0  0  0  0
   -2.4797   -0.7683   -0.3398 C   0  0  0  0  0  0  0  0  0  0  0  0
   -2.3280    1.4594    0.5834 C   0  0  0  0  0  0  0  0  0  0  0  0
   -3.0958    0.3567    0.2086 C   0  0  0  0  0  0  0  0  0  0  0  0
    1.3083   -1.7545   -1.0099 H   0  0  0  0  0  0  0  0  0  0  0  0
    2.7669   -1.0424   -0.3480 H   0  0  0  0  0  0  0  0  0  0  0  0
    1.3111    0.9524    1.7414 H   0  0  0  0  0  0  0  0  0  0  0  0
    2.8226    0.9327    0.7815 H   0  0  0  0  0  0  0  0  0  0  0  0
    1.6520    2.2132    0.4870 H   0  0  0  0  0  0  0  0  0  0  0  0
    1.0331    1.8355   -1.8050 H   0  0  0  0  0  0  0  0  0  0  0  0
    2.5231    0.8390   -1.8222 H   0  0  0  0  0  0  0  0  0  0  0  0
    0.9858    0.1596   -2.4581 H   0  0  0  0  0  0  0  0  0  0  0  0
    1.6979   -2.7152    1.2129 H   0  0  0  0  0  0  0  0  0  0  0  0
    1.9877   -1.1625    1.9542 H   0  0  0  0  0  0  0  0  0  0  0  0
    0.3464   -1.6355    1.4887 H   0  0  0  0  0  0  0  0  0  0  0  0
   -0.6692   -1.6705   -0.9735 H   0  0  0  0  0  0  0  0  0  0  0  0
   -0.4013    2.3306    0.6852 H   0  0  0  0  0  0  0  0  0  0  0  0
   -2.8094    2.3381    1.0028 H   0  0  0  0  0  0  0  0  0  0  0  0
   -4.1732    0.3875    0.3475 H   0  0  0  0  0  0  0  0  0  0  0  0
   -4.1641   -1.6565   -0.5132 H   0  0  0  0  0  0  0  0  0  0  0  0
  1 10  1  0  0  0  0
  1 28  1  0  0  0  0
  2  3  1  0  0  0  0
  2  4  1  0  0  0  0
  2  5  1  0  0  0  0
  2  6  1  0  0  0  0
  3  7  1  0  0  0  0
  3 13  1  0  0  0  0
  3 14  1  0  0  0  0
  4  8  2  0  0  0  0
  4  9  1  0  0  0  0
  5 15  1  0  0  0  0
  5 16  1  0  0  0  0
  5 17  1  0  0  0  0
  6 18  1  0  0  0  0
  6 19  1  0  0  0  0
  6 20  1  0  0  0  0
  7 21  1  0  0  0  0
  7 22  1  0  0  0  0
  7 23  1  0  0  0  0
  8 10  1  0  0  0  0
  8 24  1  0  0  0  0
  9 11  2  0  0  0  0
  9 25  1  0  0  0  0
 10 12  2  0  0  0  0
 11 12  1  0  0  0  0
 11 26  1  0  0  0  0
 12 27  1  0  0  0  0
M  CHG  1   2   1
M  END
