DB01291
 OpenBabel07062211533D

 37 37  0  0  1  0  0  0  0  0999 V2000
   -0.0562   -1.1255   -2.2529 O   0  0  0  0  0  0  0  0  0  0  0  0
   -5.3897   -0.1306    0.6750 O   0  0  0  0  0  0  0  0  0  0  0  0
   -3.4507    2.6446    0.7012 O   0  0  0  0  0  0  0  0  0  0  0  0
    2.2089   -0.6668   -0.5375 N   0  0  0  0  0  0  0  0  0  0  0  0
   -1.9977    0.2518   -0.6254 N   0  0  0  0  0  0  0  0  0  0  0  0
    3.1564    0.2156    0.1515 C   0  0  0  0  0  0  0  0  0  0  0  0
    0.8465   -0.3747   -0.1252 C   0  0  0  0  0  0  0  0  0  0  0  0
   -0.1491   -1.2971   -0.8393 C   0  0  1  0  0  0  0  0  0  0  0  0
    4.5733   -0.1232   -0.3234 C   0  0  0  0  0  0  0  0  0  0  0  0
    2.8165    1.6674   -0.2017 C   0  0  0  0  0  0  0  0  0  0  0  0
    3.0427    0.0011    1.6655 C   0  0  0  0  0  0  0  0  0  0  0  0
   -1.5735   -1.0056   -0.4202 C   0  0  0  0  0  0  0  0  0  0  0  0
   -2.3196   -2.0223    0.1289 C   0  0  0  0  0  0  0  0  0  0  0  0
   -3.2709    0.5070   -0.2494 C   0  0  0  0  0  0  0  0  0  0  0  0
   -3.6247   -1.7213    0.5029 C   0  0  0  0  0  0  0  0  0  0  0  0
   -4.1170   -0.4349    0.3134 C   0  0  0  0  0  0  0  0  0  0  0  0
   -3.7511    1.9034   -0.4742 C   0  0  0  0  0  0  0  0  0  0  0  0
    2.4285   -1.6414   -0.3325 H   0  0  0  0  0  0  0  0  0  0  0  0
    0.6909   -0.5095    0.9497 H   0  0  0  0  0  0  0  0  0  0  0  0
    0.5729    0.6505   -0.3916 H   0  0  0  0  0  0  0  0  0  0  0  0
    0.0995   -2.3442   -0.6250 H   0  0  0  0  0  0  0  0  0  0  0  0
    4.8360   -1.1616   -0.0894 H   0  0  0  0  0  0  0  0  0  0  0  0
    5.3175    0.5214    0.1583 H   0  0  0  0  0  0  0  0  0  0  0  0
    4.6732    0.0104   -1.4070 H   0  0  0  0  0  0  0  0  0  0  0  0
    1.9258    2.0477    0.3095 H   0  0  0  0  0  0  0  0  0  0  0  0
    2.6852    1.8038   -1.2819 H   0  0  0  0  0  0  0  0  0  0  0  0
    3.6366    2.3304    0.1017 H   0  0  0  0  0  0  0  0  0  0  0  0
    2.1362    0.4321    2.1030 H   0  0  0  0  0  0  0  0  0  0  0  0
    3.8814    0.4877    2.1789 H   0  0  0  0  0  0  0  0  0  0  0  0
    3.0846   -1.0623    1.9295 H   0  0  0  0  0  0  0  0  0  0  0  0
   -1.9270   -3.0223    0.2727 H   0  0  0  0  0  0  0  0  0  0  0  0
    0.8714   -1.2768   -2.5031 H   0  0  0  0  0  0  0  0  0  0  0  0
   -4.2467   -2.4973    0.9404 H   0  0  0  0  0  0  0  0  0  0  0  0
   -3.2237    2.3585   -1.3192 H   0  0  0  0  0  0  0  0  0  0  0  0
   -4.8255    1.9515   -0.6767 H   0  0  0  0  0  0  0  0  0  0  0  0
   -5.8112   -0.9244    1.0467 H   0  0  0  0  0  0  0  0  0  0  0  0
   -3.7497    3.5569    0.5467 H   0  0  0  0  0  0  0  0  0  0  0  0
  1  8  1  0  0  0  0
  1 32  1  0  0  0  0
  2 16  1  0  0  0  0
  2 36  1  0  0  0  0
  3 17  1  0  0  0  0
  3 37  1  0  0  0  0
  4  6  1  0  0  0  0
  4  7  1  0  0  0  0
  4 18  1  0  0  0  0
  5 12  2  0  0  0  0
  5 14  1  0  0  0  0
  6  9  1  0  0  0  0
  6 10  1  0  0  0  0
  6 11  1  0  0  0  0
  7  8  1  0  0  0  0
  7 19  1  0  0  0  0
  7 20  1  0  0  0  0
  8 12  1  0  0  0  0
  8 21  1  1  0  0  0
  9 22  1  0  0  0  0
  9 23  1  0  0  0  0
  9 24  1  0  0  0  0
 10 25  1  0  0  0  0
 10 26  1  0  0  0  0
 10 27  1  0  0  0  0
 11 28  1  0  0  0  0
 11 29  1  0  0  0  0
 11 30  1  0  0  0  0
 12 13  1  0  0  0  0
 13 15  2  0  0  0  0
 13 31  1  0  0  0  0
 14 16  2  0  0  0  0
 14 17  1  0  0  0  0
 15 16  1  0  0  0  0
 15 33  1  0  0  0  0
 17 34  1  0  0  0  0
 17 35  1  0  0  0  0
M  END
