DB01428
 OpenBabel07062211533D

 29 30  0  0  0  0  0  0  0  0999 V2000
   -4.1614    0.0398    0.6670 O   0  0  0  0  0  0  0  0  0  0  0  0
   -0.0814    2.4646    1.0828 O   0  0  0  0  0  0  0  0  0  0  0  0
    1.3319    1.7798   -1.9367 O   0  0  0  0  0  0  0  0  0  0  0  0
   -0.2823    0.7344   -0.5663 C   0  0  0  0  0  0  0  0  0  0  0  0
    1.1024    0.9688   -1.0262 C   0  0  0  0  0  0  0  0  0  0  0  0
    2.2185    0.2484   -0.4351 C   0  0  0  0  0  0  0  0  0  0  0  0
   -0.8095    1.4923    0.4648 C   0  0  0  0  0  0  0  0  0  0  0  0
   -1.0254   -0.2506   -1.1945 C   0  0  0  0  0  0  0  0  0  0  0  0
   -2.8832    0.2694    0.2595 C   0  0  0  0  0  0  0  0  0  0  0  0
   -2.1202    1.2579    0.8811 C   0  0  0  0  0  0  0  0  0  0  0  0
   -2.3357   -0.4848   -0.7783 C   0  0  0  0  0  0  0  0  0  0  0  0
    1.9912   -0.6702    0.5900 C   0  0  0  0  0  0  0  0  0  0  0  0
    3.5163    0.4750   -0.8931 C   0  0  0  0  0  0  0  0  0  0  0  0
    3.0617   -1.3617    1.1569 C   0  0  0  0  0  0  0  0  0  0  0  0
    4.5868   -0.2166   -0.3260 C   0  0  0  0  0  0  0  0  0  0  0  0
    4.3595   -1.1349    0.6989 C   0  0  0  0  0  0  0  0  0  0  0  0
   -4.8844   -0.9868   -0.0106 C   0  0  0  0  0  0  0  0  0  0  0  0
   -0.6060   -0.8411   -2.0044 H   0  0  0  0  0  0  0  0  0  0  0  0
   -2.5546    1.8414    1.6892 H   0  0  0  0  0  0  0  0  0  0  0  0
   -2.8718   -1.2673   -1.3043 H   0  0  0  0  0  0  0  0  0  0  0  0
    1.0003   -0.8805    0.9803 H   0  0  0  0  0  0  0  0  0  0  0  0
    3.7231    1.1844   -1.6901 H   0  0  0  0  0  0  0  0  0  0  0  0
    2.8854   -2.0768    1.9552 H   0  0  0  0  0  0  0  0  0  0  0  0
    5.5976   -0.0403   -0.6823 H   0  0  0  0  0  0  0  0  0  0  0  0
    5.1929   -1.6734    1.1405 H   0  0  0  0  0  0  0  0  0  0  0  0
   -0.6252    2.8778    1.7750 H   0  0  0  0  0  0  0  0  0  0  0  0
   -4.4211   -1.9685    0.1352 H   0  0  0  0  0  0  0  0  0  0  0  0
   -5.0252   -0.7475   -1.0701 H   0  0  0  0  0  0  0  0  0  0  0  0
   -5.8804   -1.0331    0.4417 H   0  0  0  0  0  0  0  0  0  0  0  0
  1  9  1  0  0  0  0
  1 17  1  0  0  0  0
  2  7  1  0  0  0  0
  2 26  1  0  0  0  0
  3  5  2  0  0  0  0
  4  5  1  0  0  0  0
  4  7  2  0  0  0  0
  4  8  1  0  0  0  0
  5  6  1  0  0  0  0
  6 12  2  0  0  0  0
  6 13  1  0  0  0  0
  7 10  1  0  0  0  0
  8 11  2  0  0  0  0
  8 18  1  0  0  0  0
  9 10  2  0  0  0  0
  9 11  1  0  0  0  0
 10 19  1  0  0  0  0
 11 20  1  0  0  0  0
 12 14  1  0  0  0  0
 12 21  1  0  0  0  0
 13 15  2  0  0  0  0
 13 22  1  0  0  0  0
 14 16  2  0  0  0  0
 14 23  1  0  0  0  0
 15 16  1  0  0  0  0
 15 24  1  0  0  0  0
 16 25  1  0  0  0  0
 17 27  1  0  0  0  0
 17 28  1  0  0  0  0
 17 29  1  0  0  0  0
M  END
