DB01563
 OpenBabel07062211533D

 10  9  0  0  0  0  0  0  0  0999 V2000
    1.2585    2.0512   -0.1344 Cl  0  0  0  0  0  0  0  0  0  0  0  0
    1.4161   -0.4282   -1.6530 Cl  0  0  0  0  0  0  0  0  0  0  0  0
    2.0594   -0.4080    1.1856 Cl  0  0  0  0  0  0  0  0  0  0  0  0
   -0.7400   -1.4134    0.3412 O   0  0  0  0  0  0  0  0  0  0  0  0
   -1.3594    0.5978   -0.6695 O   0  0  0  0  0  0  0  0  0  0  0  0
   -0.4905   -0.0114    0.2819 C   0  0  0  0  0  0  0  0  0  0  0  0
    0.9780    0.2814   -0.0678 C   0  0  0  0  0  0  0  0  0  0  0  0
   -0.7336    0.4062    1.2663 H   0  0  0  0  0  0  0  0  0  0  0  0
   -0.1841   -1.8424   -0.3311 H   0  0  0  0  0  0  0  0  0  0  0  0
   -2.2044    0.7667   -0.2192 H   0  0  0  0  0  0  0  0  0  0  0  0
  1  7  1  0  0  0  0
  2  7  1  0  0  0  0
  3  7  1  0  0  0  0
  4  6  1  0  0  0  0
  4  9  1  0  0  0  0
  5  6  1  0  0  0  0
  5 10  1  0  0  0  0
  6  7  1  0  0  0  0
  6  8  1  0  0  0  0
M  END
