DB01186
 OpenBabel07062211533D

 48 51  0  0  1  0  0  0  0  0999 V2000
    2.5867    3.6781   -0.6545 S   0  0  0  0  0  0  0  0  0  0  0  0
    0.8832   -1.2580   -0.3145 N   0  0  0  0  0  0  0  0  0  0  0  0
   -5.0963   -0.8660    0.2818 N   0  0  0  0  0  0  0  0  0  0  0  0
   -0.7644    0.6273   -0.5674 C   0  0  2  0  0  0  0  0  0  0  0  0
   -0.4824   -0.8100    0.0551 C   0  0  1  0  0  0  0  0  0  0  0  0
    0.3079    1.6227   -0.1042 C   0  0  0  0  0  0  0  0  0  0  0  0
    1.7086    1.0907   -0.4156 C   0  0  2  0  0  0  0  0  0  0  0  0
    1.9000   -0.3103    0.1755 C   0  0  0  0  0  0  0  0  0  0  0  0
   -1.5875   -1.8610   -0.3475 C   0  0  0  0  0  0  0  0  0  0  0  0
   -2.1807    1.0875   -0.2638 C   0  0  0  0  0  0  0  0  0  0  0  0
   -2.9509   -1.3086   -0.1075 C   0  0  0  0  0  0  0  0  0  0  0  0
   -3.1439    0.0868   -0.0842 C   0  0  0  0  0  0  0  0  0  0  0  0
    1.1999   -2.5973    0.1905 C   0  0  0  0  0  0  0  0  0  0  0  0
    2.7763    2.0495    0.1110 C   0  0  0  0  0  0  0  0  0  0  0  0
   -4.4773    0.3589    0.1572 C   0  0  0  0  0  0  0  0  0  0  0  0
   -2.6495    2.4070   -0.2173 C   0  0  0  0  0  0  0  0  0  0  0  0
   -4.1790   -1.8841    0.1197 C   0  0  0  0  0  0  0  0  0  0  0  0
    2.5626   -3.0504   -0.3276 C   0  0  0  0  0  0  0  0  0  0  0  0
   -4.9493    1.6686    0.2284 C   0  0  0  0  0  0  0  0  0  0  0  0
   -4.0031    2.6867    0.0315 C   0  0  0  0  0  0  0  0  0  0  0  0
    2.9057   -4.4477    0.1651 C   0  0  0  0  0  0  0  0  0  0  0  0
    3.9587    4.5222    0.1670 C   0  0  0  0  0  0  0  0  0  0  0  0
   -0.6990    0.5383   -1.6621 H   0  0  0  0  0  0  0  0  0  0  0  0
   -0.5338   -0.7086    1.1514 H   0  0  0  0  0  0  0  0  0  0  0  0
    0.1334    2.5748   -0.6135 H   0  0  0  0  0  0  0  0  0  0  0  0
    0.2030    1.8100    0.9731 H   0  0  0  0  0  0  0  0  0  0  0  0
    1.8154    1.0101   -1.5076 H   0  0  0  0  0  0  0  0  0  0  0  0
    2.9080   -0.5935   -0.1329 H   0  0  0  0  0  0  0  0  0  0  0  0
    1.8921   -0.2648    1.2731 H   0  0  0  0  0  0  0  0  0  0  0  0
   -1.4870   -2.7755    0.2471 H   0  0  0  0  0  0  0  0  0  0  0  0
   -1.4865   -2.1247   -1.4074 H   0  0  0  0  0  0  0  0  0  0  0  0
    1.1739   -2.6266    1.2872 H   0  0  0  0  0  0  0  0  0  0  0  0
    0.4775   -3.3324   -0.1768 H   0  0  0  0  0  0  0  0  0  0  0  0
    3.7745    1.6656   -0.1252 H   0  0  0  0  0  0  0  0  0  0  0  0
    2.6979    2.1527    1.1989 H   0  0  0  0  0  0  0  0  0  0  0  0
   -1.9743    3.2427   -0.3773 H   0  0  0  0  0  0  0  0  0  0  0  0
   -4.4923   -2.9166    0.1850 H   0  0  0  0  0  0  0  0  0  0  0  0
    2.5791   -3.0383   -1.4241 H   0  0  0  0  0  0  0  0  0  0  0  0
    3.3850   -2.4242    0.0249 H   0  0  0  0  0  0  0  0  0  0  0  0
   -6.0813   -1.0016    0.4626 H   0  0  0  0  0  0  0  0  0  0  0  0
   -5.9926    1.8945    0.4165 H   0  0  0  0  0  0  0  0  0  0  0  0
   -4.3301    3.7238    0.0669 H   0  0  0  0  0  0  0  0  0  0  0  0
    2.9402   -4.4819    1.2590 H   0  0  0  0  0  0  0  0  0  0  0  0
    2.1657   -5.1777   -0.1782 H   0  0  0  0  0  0  0  0  0  0  0  0
    3.8851   -4.7555   -0.2152 H   0  0  0  0  0  0  0  0  0  0  0  0
    3.8096    4.5269    1.2500 H   0  0  0  0  0  0  0  0  0  0  0  0
    4.0050    5.5574   -0.1815 H   0  0  0  0  0  0  0  0  0  0  0  0
    4.9060    4.0324   -0.0726 H   0  0  0  0  0  0  0  0  0  0  0  0
  1 14  1  0  0  0  0
  1 22  1  0  0  0  0
  2  5  1  0  0  0  0
  2  8  1  0  0  0  0
  2 13  1  0  0  0  0
  3 15  1  0  0  0  0
  3 17  2  0  0  0  0
  3 40  1  0  0  0  0
  4  5  1  1  0  0  0
  4  6  1  0  0  0  0
  4 10  1  0  0  0  0
  4 23  1  0  0  0  0
  5  9  1  0  0  0  0
  5 24  1  1  0  0  0
  6  7  1  0  0  0  0
  6 25  1  0  0  0  0
  6 26  1  0  0  0  0
  7  8  1  0  0  0  0
  7 14  1  0  0  0  0
  7 27  1  6  0  0  0
  8 28  1  0  0  0  0
  8 29  1  0  0  0  0
  9 11  1  0  0  0  0
  9 30  1  0  0  0  0
  9 31  1  0  0  0  0
 10 12  1  0  0  0  0
 10 16  2  0  0  0  0
 11 12  2  0  0  0  0
 11 17  1  0  0  0  0
 12 15  2  0  0  0  0
 13 18  1  0  0  0  0
 13 32  1  0  0  0  0
 13 33  1  0  0  0  0
 14 34  1  0  0  0  0
 14 35  1  0  0  0  0
 15 19  1  0  0  0  0
 16 20  1  0  0  0  0
 16 36  1  0  0  0  0
 17 37  1  0  0  0  0
 18 21  1  0  0  0  0
 18 38  1  0  0  0  0
 18 39  1  0  0  0  0
 19 20  2  0  0  0  0
 19 41  1  0  0  0  0
 20 42  1  0  0  0  0
 21 43  1  0  0  0  0
 21 44  1  0  0  0  0
 21 45  1  0  0  0  0
 22 46  1  0  0  0  0
 22 47  1  0  0  0  0
 22 48  1  0  0  0  0
M  END
