DB01214
 OpenBabel07062211533D

 49 49  0  0  1  0  0  0  0  0999 V2000
    1.0866   -1.7865    0.9680 O   0  0  0  0  0  0  0  0  0  0  0  0
    3.7406   -2.5822    1.2027 O   0  0  0  0  0  0  0  0  0  0  0  0
   -4.1194   -0.1855    0.0931 O   0  0  0  0  0  0  0  0  0  0  0  0
   -3.3275    1.4139   -1.4215 O   0  0  0  0  0  0  0  0  0  0  0  0
    3.1008    0.2748   -1.0643 N   0  0  0  0  0  0  0  0  0  0  0  0
    3.2789   -1.9545    0.0030 C   0  0  2  0  0  0  0  0  0  0  0  0
    3.5736   -0.4561    0.1036 C   0  0  0  0  0  0  0  0  0  0  0  0
    3.3426    1.7036   -0.9177 C   0  0  0  0  0  0  0  0  0  0  0  0
    1.7945   -2.2686   -0.1699 C   0  0  0  0  0  0  0  0  0  0  0  0
   -0.2041   -1.3787    0.7622 C   0  0  0  0  0  0  0  0  0  0  0  0
   -0.7637   -0.3753    1.5474 C   0  0  0  0  0  0  0  0  0  0  0  0
   -2.0805    0.0266    1.3229 C   0  0  0  0  0  0  0  0  0  0  0  0
   -2.2657   -1.5822   -0.4700 C   0  0  0  0  0  0  0  0  0  0  0  0
   -2.8315   -0.5770    0.3142 C   0  0  0  0  0  0  0  0  0  0  0  0
    2.6224    2.2382    0.3169 C   0  0  0  0  0  0  0  0  0  0  0  0
    2.8813    2.4286   -2.1780 C   0  0  0  0  0  0  0  0  0  0  0  0
   -0.9490   -1.9842   -0.2454 C   0  0  0  0  0  0  0  0  0  0  0  0
    0.0478    0.2671    2.6271 C   0  0  0  0  0  0  0  0  0  0  0  0
   -2.6924    1.1040    2.1607 C   0  0  0  0  0  0  0  0  0  0  0  0
   -3.0533   -2.2406   -1.5544 C   0  0  0  0  0  0  0  0  0  0  0  0
   -4.2471    0.8605   -0.8335 C   0  0  0  0  0  0  0  0  0  0  0  0
   -5.6940    1.2162   -1.0063 C   0  0  0  0  0  0  0  0  0  0  0  0
    3.8355   -2.3921   -0.8343 H   0  0  0  0  0  0  0  0  0  0  0  0
    3.1154   -0.1075    1.0341 H   0  0  0  0  0  0  0  0  0  0  0  0
    4.6554   -0.3159    0.2277 H   0  0  0  0  0  0  0  0  0  0  0  0
    4.4186    1.8901   -0.8074 H   0  0  0  0  0  0  0  0  0  0  0  0
    1.6587   -3.3559   -0.2136 H   0  0  0  0  0  0  0  0  0  0  0  0
    1.4478   -1.8218   -1.1096 H   0  0  0  0  0  0  0  0  0  0  0  0
    3.5665   -0.0757   -1.9008 H   0  0  0  0  0  0  0  0  0  0  0  0
   -0.5468   -2.7927   -0.8490 H   0  0  0  0  0  0  0  0  0  0  0  0
    2.6154    3.3346    0.3060 H   0  0  0  0  0  0  0  0  0  0  0  0
    1.5772    1.9108    0.3517 H   0  0  0  0  0  0  0  0  0  0  0  0
    3.1146    1.9506    1.2508 H   0  0  0  0  0  0  0  0  0  0  0  0
    3.4113    2.0582   -3.0627 H   0  0  0  0  0  0  0  0  0  0  0  0
    3.0784    3.5034   -2.1016 H   0  0  0  0  0  0  0  0  0  0  0  0
    1.8065    2.2955   -2.3467 H   0  0  0  0  0  0  0  0  0  0  0  0
    1.1102    0.0120    2.5688 H   0  0  0  0  0  0  0  0  0  0  0  0
   -0.3110   -0.0529    3.6109 H   0  0  0  0  0  0  0  0  0  0  0  0
   -0.0054    1.3590    2.5593 H   0  0  0  0  0  0  0  0  0  0  0  0
   -2.3331    2.0847    1.8328 H   0  0  0  0  0  0  0  0  0  0  0  0
   -3.7858    1.1109    2.1085 H   0  0  0  0  0  0  0  0  0  0  0  0
   -2.4524    0.9695    3.2206 H   0  0  0  0  0  0  0  0  0  0  0  0
    4.6952   -2.4111    1.2738 H   0  0  0  0  0  0  0  0  0  0  0  0
   -4.0416   -2.5400   -1.1899 H   0  0  0  0  0  0  0  0  0  0  0  0
   -3.1745   -1.5588   -2.4022 H   0  0  0  0  0  0  0  0  0  0  0  0
   -2.5616   -3.1482   -1.9209 H   0  0  0  0  0  0  0  0  0  0  0  0
   -6.2445    0.3496   -1.3808 H   0  0  0  0  0  0  0  0  0  0  0  0
   -5.7837    2.0282   -1.7335 H   0  0  0  0  0  0  0  0  0  0  0  0
   -6.1072    1.5532   -0.0526 H   0  0  0  0  0  0  0  0  0  0  0  0
  1  9  1  0  0  0  0
  1 10  1  0  0  0  0
  2  6  1  0  0  0  0
  2 43  1  0  0  0  0
  3 14  1  0  0  0  0
  3 21  1  0  0  0  0
  4 21  2  0  0  0  0
  5  7  1  0  0  0  0
  5  8  1  0  0  0  0
  5 29  1  0  0  0  0
  6  7  1  0  0  0  0
  6  9  1  0  0  0  0
  6 23  1  6  0  0  0
  7 24  1  0  0  0  0
  7 25  1  0  0  0  0
  8 15  1  0  0  0  0
  8 16  1  0  0  0  0
  8 26  1  0  0  0  0
  9 27  1  0  0  0  0
  9 28  1  0  0  0  0
 10 11  2  0  0  0  0
 10 17  1  0  0  0  0
 11 12  1  0  0  0  0
 11 18  1  0  0  0  0
 12 14  2  0  0  0  0
 12 19  1  0  0  0  0
 13 14  1  0  0  0  0
 13 17  2  0  0  0  0
 13 20  1  0  0  0  0
 15 31  1  0  0  0  0
 15 32  1  0  0  0  0
 15 33  1  0  0  0  0
 16 34  1  0  0  0  0
 16 35  1  0  0  0  0
 16 36  1  0  0  0  0
 17 30  1  0  0  0  0
 18 37  1  0  0  0  0
 18 38  1  0  0  0  0
 18 39  1  0  0  0  0
 19 40  1  0  0  0  0
 19 41  1  0  0  0  0
 19 42  1  0  0  0  0
 20 44  1  0  0  0  0
 20 45  1  0  0  0  0
 20 46  1  0  0  0  0
 21 22  1  0  0  0  0
 22 47  1  0  0  0  0
 22 48  1  0  0  0  0
 22 49  1  0  0  0  0
M  END
