DB01154
 OpenBabel07062211533D

 35 35  0  0  1  0  0  0  0  0999 V2000
   -2.3612   -4.3728    0.1864 S   0  0  0  0  0  0  0  0  0  0  0  0
   -2.3656    0.3244    1.7525 O   0  0  0  0  0  0  0  0  0  0  0  0
   -0.3727   -0.6458   -2.3964 O   0  0  0  0  0  0  0  0  0  0  0  0
   -2.2169   -1.8352    0.9933 N   0  0  0  0  0  0  0  0  0  0  0  0
   -1.2214   -2.3197   -1.0773 N   0  0  0  0  0  0  0  0  0  0  0  0
   -0.8301   -0.1139   -0.0740 C   0  0  0  0  0  0  0  0  0  0  0  0
    0.5395   -0.2480    0.6155 C   0  0  1  0  0  0  0  0  0  0  0  0
    1.7088    0.1081   -0.3212 C   0  0  0  0  0  0  0  0  0  0  0  0
   -1.0367    1.3427   -0.5141 C   0  0  0  0  0  0  0  0  0  0  0  0
    0.5825    0.6470    1.8567 C   0  0  0  0  0  0  0  0  0  0  0  0
   -1.8885   -0.4884    0.9610 C   0  0  0  0  0  0  0  0  0  0  0  0
   -0.8002   -1.0182   -1.3041 C   0  0  0  0  0  0  0  0  0  0  0  0
    3.0846   -0.0808    0.3221 C   0  0  0  0  0  0  0  0  0  0  0  0
   -2.4141    1.5426   -1.0529 C   0  0  0  0  0  0  0  0  0  0  0  0
   -1.8977   -2.7737    0.0351 C   0  0  0  0  0  0  0  0  0  0  0  0
    4.2035    0.2152   -0.6655 C   0  0  0  0  0  0  0  0  0  0  0  0
   -3.3037    2.3878   -0.5203 C   0  0  0  0  0  0  0  0  0  0  0  0
    0.6792   -1.2854    0.9506 H   0  0  0  0  0  0  0  0  0  0  0  0
    1.6386    1.1469   -0.6618 H   0  0  0  0  0  0  0  0  0  0  0  0
    1.6946   -0.5266   -1.2117 H   0  0  0  0  0  0  0  0  0  0  0  0
   -0.3421    1.6371   -1.3091 H   0  0  0  0  0  0  0  0  0  0  0  0
   -0.8864    2.0536    0.3040 H   0  0  0  0  0  0  0  0  0  0  0  0
    1.4787    0.4153    2.4447 H   0  0  0  0  0  0  0  0  0  0  0  0
   -0.2306    0.4838    2.5643 H   0  0  0  0  0  0  0  0  0  0  0  0
    0.6481    1.7135    1.6237 H   0  0  0  0  0  0  0  0  0  0  0  0
    3.1885   -1.1080    0.6895 H   0  0  0  0  0  0  0  0  0  0  0  0
    3.2113    0.5905    1.1771 H   0  0  0  0  0  0  0  0  0  0  0  0
   -2.8143   -2.1432    1.7554 H   0  0  0  0  0  0  0  0  0  0  0  0
   -1.0883   -2.9834   -1.8351 H   0  0  0  0  0  0  0  0  0  0  0  0
   -2.7034    0.9879   -1.9417 H   0  0  0  0  0  0  0  0  0  0  0  0
    4.1538   -0.4564   -1.5284 H   0  0  0  0  0  0  0  0  0  0  0  0
    4.1450    1.2465   -1.0281 H   0  0  0  0  0  0  0  0  0  0  0  0
    5.1780    0.0786   -0.1859 H   0  0  0  0  0  0  0  0  0  0  0  0
   -4.2874    2.4988   -0.9632 H   0  0  0  0  0  0  0  0  0  0  0  0
   -3.0733    2.9792    0.3588 H   0  0  0  0  0  0  0  0  0  0  0  0
  1 15  2  0  0  0  0
  2 11  2  0  0  0  0
  3 12  2  0  0  0  0
  4 11  1  0  0  0  0
  4 15  1  0  0  0  0
  4 28  1  0  0  0  0
  5 12  1  0  0  0  0
  5 15  1  0  0  0  0
  5 29  1  0  0  0  0
  6  7  1  0  0  0  0
  6  9  1  0  0  0  0
  6 11  1  0  0  0  0
  6 12  1  0  0  0  0
  7  8  1  0  0  0  0
  7 10  1  0  0  0  0
  7 18  1  1  0  0  0
  8 13  1  0  0  0  0
  8 19  1  0  0  0  0
  8 20  1  0  0  0  0
  9 14  1  0  0  0  0
  9 21  1  0  0  0  0
  9 22  1  0  0  0  0
 10 23  1  0  0  0  0
 10 24  1  0  0  0  0
 10 25  1  0  0  0  0
 13 16  1  0  0  0  0
 13 26  1  0  0  0  0
 13 27  1  0  0  0  0
 14 17  2  0  0  0  0
 14 30  1  0  0  0  0
 16 31  1  0  0  0  0
 16 32  1  0  0  0  0
 16 33  1  0  0  0  0
 17 34  1  0  0  0  0
 17 35  1  0  0  0  0
M  END
