DB01125
 OpenBabel07062211533D

 31 33  0  0  0  0  0  0  0  0999 V2000
    1.1331    1.0894   -2.3718 O   0  0  0  0  0  0  0  0  0  0  0  0
    1.1331    1.0825    2.3740 O   0  0  0  0  0  0  0  0  0  0  0  0
   -4.7296   -0.2331   -0.0008 O   0  0  0  0  0  0  0  0  0  0  0  0
    0.6418    1.4928    0.0014 C   0  0  0  0  0  0  0  0  0  0  0  0
    1.4132    0.9564   -1.1952 C   0  0  0  0  0  0  0  0  0  0  0  0
    1.4127    0.9533    1.1970 C   0  0  0  0  0  0  0  0  0  0  0  0
    2.5819    0.2285   -0.6958 C   0  0  0  0  0  0  0  0  0  0  0  0
    2.5815    0.2267    0.6962 C   0  0  0  0  0  0  0  0  0  0  0  0
   -0.7739    1.0379    0.0005 C   0  0  0  0  0  0  0  0  0  0  0  0
    3.5743   -0.4003   -1.4223 C   0  0  0  0  0  0  0  0  0  0  0  0
    3.5736   -0.4038    1.4216 C   0  0  0  0  0  0  0  0  0  0  0  0
   -1.8115    1.9731    0.0010 C   0  0  0  0  0  0  0  0  0  0  0  0
   -1.0720   -0.3270   -0.0003 C   0  0  0  0  0  0  0  0  0  0  0  0
    4.5879   -1.0416   -0.7050 C   0  0  0  0  0  0  0  0  0  0  0  0
    4.5877   -1.0432    0.7034 C   0  0  0  0  0  0  0  0  0  0  0  0
   -3.1395    1.5461    0.0010 C   0  0  0  0  0  0  0  0  0  0  0  0
   -2.3999   -0.7538   -0.0004 C   0  0  0  0  0  0  0  0  0  0  0  0
   -3.4337    0.1826    0.0003 C   0  0  0  0  0  0  0  0  0  0  0  0
   -4.9600   -1.6412   -0.0013 C   0  0  0  0  0  0  0  0  0  0  0  0
    0.7420    2.5847    0.0029 H   0  0  0  0  0  0  0  0  0  0  0  0
    3.5758   -0.4031   -2.5062 H   0  0  0  0  0  0  0  0  0  0  0  0
    3.5747   -0.4092    2.5055 H   0  0  0  0  0  0  0  0  0  0  0  0
   -1.5980    3.0388    0.0017 H   0  0  0  0  0  0  0  0  0  0  0  0
   -0.2834   -1.0749   -0.0007 H   0  0  0  0  0  0  0  0  0  0  0  0
    5.3876   -1.5479   -1.2394 H   0  0  0  0  0  0  0  0  0  0  0  0
    5.3872   -1.5507    1.2369 H   0  0  0  0  0  0  0  0  0  0  0  0
   -3.9405    2.2802    0.0014 H   0  0  0  0  0  0  0  0  0  0  0  0
   -2.5576   -1.8270   -0.0010 H   0  0  0  0  0  0  0  0  0  0  0  0
   -4.5718   -2.1120   -0.9109 H   0  0  0  0  0  0  0  0  0  0  0  0
   -6.0446   -1.7915   -0.0017 H   0  0  0  0  0  0  0  0  0  0  0  0
   -4.5722   -2.1127    0.9080 H   0  0  0  0  0  0  0  0  0  0  0  0
  1  5  2  0  0  0  0
  2  6  2  0  0  0  0
  3 18  1  0  0  0  0
  3 19  1  0  0  0  0
  4  5  1  0  0  0  0
  4  6  1  0  0  0  0
  4  9  1  0  0  0  0
  4 20  1  0  0  0  0
  5  7  1  0  0  0  0
  6  8  1  0  0  0  0
  7  8  2  0  0  0  0
  7 10  1  0  0  0  0
  8 11  1  0  0  0  0
  9 12  2  0  0  0  0
  9 13  1  0  0  0  0
 10 14  2  0  0  0  0
 10 21  1  0  0  0  0
 11 15  2  0  0  0  0
 11 22  1  0  0  0  0
 12 16  1  0  0  0  0
 12 23  1  0  0  0  0
 13 17  2  0  0  0  0
 13 24  1  0  0  0  0
 14 15  1  0  0  0  0
 14 25  1  0  0  0  0
 15 26  1  0  0  0  0
 16 18  2  0  0  0  0
 16 27  1  0  0  0  0
 17 18  1  0  0  0  0
 17 28  1  0  0  0  0
 19 29  1  0  0  0  0
 19 30  1  0  0  0  0
 19 31  1  0  0  0  0
M  END
