DB01005
 OpenBabel07062211533D

  9  8  0  0  0  0  0  0  0  0999 V2000
    2.0497   -0.1492    0.2985 O   0  0  0  0  0  0  0  0  0  0  0  0
   -0.1400   -1.7309    0.1837 O   0  0  0  0  0  0  0  0  0  0  0  0
    0.7678    0.3950    0.1408 N   0  0  0  0  0  0  0  0  0  0  0  0
   -1.4933    0.1045   -0.0719 N   0  0  0  0  0  0  0  0  0  0  0  0
   -0.2672   -0.5106    0.0963 C   0  0  0  0  0  0  0  0  0  0  0  0
    0.6710    1.3971    0.2533 H   0  0  0  0  0  0  0  0  0  0  0  0
   -1.5750    1.1130   -0.1445 H   0  0  0  0  0  0  0  0  0  0  0  0
   -2.3504   -0.4356   -0.1267 H   0  0  0  0  0  0  0  0  0  0  0  0
    2.3372   -0.1833   -0.6296 H   0  0  0  0  0  0  0  0  0  0  0  0
  1  3  1  0  0  0  0
  1  9  1  0  0  0  0
  2  5  2  0  0  0  0
  3  5  1  0  0  0  0
  3  6  1  0  0  0  0
  4  5  1  0  0  0  0
  4  7  1  0  0  0  0
  4  8  1  0  0  0  0
M  END
