DB01213
 OpenBabel07062211533D

 12 12  0  0  0  0  0  0  0  0999 V2000
   -1.8995   -0.2178   -0.0007 N   0  0  0  0  0  0  0  0  0  0  0  0
   -1.7395    1.1167   -0.0007 N   0  0  0  0  0  0  0  0  0  0  0  0
    0.2706    0.0316   -0.0001 C   0  0  0  0  0  0  0  0  0  0  0  0
   -0.7261   -0.9134   -0.0001 C   0  0  0  0  0  0  0  0  0  0  0  0
    1.7248   -0.1946   -0.0002 C   0  0  0  0  0  0  0  0  0  0  0  0
   -0.4118    1.2630   -0.0003 C   0  0  0  0  0  0  0  0  0  0  0  0
   -0.7088   -1.9941    0.0001 H   0  0  0  0  0  0  0  0  0  0  0  0
    1.9906   -1.0400   -0.6431 H   0  0  0  0  0  0  0  0  0  0  0  0
    2.2630    0.6855   -0.3670 H   0  0  0  0  0  0  0  0  0  0  0  0
    2.0780   -0.4109    1.0132 H   0  0  0  0  0  0  0  0  0  0  0  0
    0.0003    2.2621   -0.0002 H   0  0  0  0  0  0  0  0  0  0  0  0
   -2.8416   -0.5881   -0.0009 H   0  0  0  0  0  0  0  0  0  0  0  0
  1  2  1  0  0  0  0
  1  4  2  0  0  0  0
  1 12  1  0  0  0  0
  2  6  1  0  0  0  0
  3  4  1  0  0  0  0
  3  5  1  0  0  0  0
  3  6  2  0  0  0  0
  4  7  1  0  0  0  0
  5  8  1  0  0  0  0
  5  9  1  0  0  0  0
  5 10  1  0  0  0  0
  6 11  1  0  0  0  0
M  END
