DB01118
 OpenBabel07062211533D

 60 62  0  0  0  0  0  0  0  0999 V2000
   -1.7376    0.6080   -3.0044 I   0  0  0  0  0  0  0  0  0  0  0  0
   -1.6842    2.7481    2.7103 I   0  0  0  0  0  0  0  0  0  0  0  0
    4.7762   -2.0495   -0.6070 O   0  0  0  0  0  0  0  0  0  0  0  0
   -2.7683    1.8571   -0.2038 O   0  0  0  0  0  0  0  0  0  0  0  0
    3.4964    1.9078    0.3298 O   0  0  0  0  0  0  0  0  0  0  0  0
   -5.9851    0.1918    0.4567 N   0  0  0  0  0  0  0  0  0  0  0  0
    5.6723    0.1218   -1.0931 C   0  0  0  0  0  0  0  0  0  0  0  0
    4.5696   -0.7067   -0.5820 C   0  0  0  0  0  0  0  0  0  0  0  0
    3.3284   -0.4141   -0.0660 C   0  0  0  0  0  0  0  0  0  0  0  0
    6.6802    0.5222    0.0074 C   0  0  0  0  0  0  0  0  0  0  0  0
    2.7230   -1.6588    0.2507 C   0  0  0  0  0  0  0  0  0  0  0  0
    3.6531   -2.6319   -0.1005 C   0  0  0  0  0  0  0  0  0  0  0  0
   -5.0696    1.2543    0.0683 C   0  0  0  0  0  0  0  0  0  0  0  0
    7.7992    1.4197   -0.5209 C   0  0  0  0  0  0  0  0  0  0  0  0
    2.7935    0.9062    0.1002 C   0  0  0  0  0  0  0  0  0  0  0  0
   -7.2985    0.7403    0.8035 C   0  0  0  0  0  0  0  0  0  0  0  0
   -6.1177   -0.7962   -0.6166 C   0  0  0  0  0  0  0  0  0  0  0  0
   -3.6265    0.7949    0.2019 C   0  0  0  0  0  0  0  0  0  0  0  0
    1.4936   -2.0702    0.7946 C   0  0  0  0  0  0  0  0  0  0  0  0
    1.3218    1.1587    0.0192 C   0  0  0  0  0  0  0  0  0  0  0  0
    3.4464   -4.0016    0.0518 C   0  0  0  0  0  0  0  0  0  0  0  0
    8.7539    1.8319    0.5884 C   0  0  0  0  0  0  0  0  0  0  0  0
   -7.9423    1.4210   -0.3924 C   0  0  0  0  0  0  0  0  0  0  0  0
   -7.0174   -1.9461   -0.1963 C   0  0  0  0  0  0  0  0  0  0  0  0
   -1.4239    1.6278   -0.1309 C   0  0  0  0  0  0  0  0  0  0  0  0
    1.2565   -3.4417    0.9596 C   0  0  0  0  0  0  0  0  0  0  0  0
    2.2170   -4.3882    0.5938 C   0  0  0  0  0  0  0  0  0  0  0  0
    0.6250    0.8527   -1.1496 C   0  0  0  0  0  0  0  0  0  0  0  0
    0.6458    1.6992    1.1130 C   0  0  0  0  0  0  0  0  0  0  0  0
   -0.7479    1.0874   -1.2247 C   0  0  0  0  0  0  0  0  0  0  0  0
   -0.7271    1.9337    1.0380 C   0  0  0  0  0  0  0  0  0  0  0  0
    5.2705    1.0262   -1.5656 H   0  0  0  0  0  0  0  0  0  0  0  0
    6.2049   -0.4217   -1.8836 H   0  0  0  0  0  0  0  0  0  0  0  0
    7.1137   -0.3843    0.4490 H   0  0  0  0  0  0  0  0  0  0  0  0
    6.1500    1.0400    0.8168 H   0  0  0  0  0  0  0  0  0  0  0  0
   -5.1858    2.1321    0.7188 H   0  0  0  0  0  0  0  0  0  0  0  0
   -5.2395    1.6164   -0.9541 H   0  0  0  0  0  0  0  0  0  0  0  0
    7.3691    2.3189   -0.9771 H   0  0  0  0  0  0  0  0  0  0  0  0
    8.3579    0.8937   -1.3035 H   0  0  0  0  0  0  0  0  0  0  0  0
   -7.1815    1.4729    1.6129 H   0  0  0  0  0  0  0  0  0  0  0  0
   -7.9655   -0.0206    1.2223 H   0  0  0  0  0  0  0  0  0  0  0  0
   -5.1389   -1.2460   -0.8178 H   0  0  0  0  0  0  0  0  0  0  0  0
   -6.4483   -0.3762   -1.5731 H   0  0  0  0  0  0  0  0  0  0  0  0
   -3.4198    0.5149    1.2416 H   0  0  0  0  0  0  0  0  0  0  0  0
   -3.4249   -0.0841   -0.4166 H   0  0  0  0  0  0  0  0  0  0  0  0
    0.7305   -1.3623    1.0996 H   0  0  0  0  0  0  0  0  0  0  0  0
    4.1963   -4.7296   -0.2339 H   0  0  0  0  0  0  0  0  0  0  0  0
    9.2233    0.9559    1.0472 H   0  0  0  0  0  0  0  0  0  0  0  0
    9.5465    2.4717    0.1879 H   0  0  0  0  0  0  0  0  0  0  0  0
    8.2293    2.3901    1.3703 H   0  0  0  0  0  0  0  0  0  0  0  0
   -7.3375    2.2270   -0.8170 H   0  0  0  0  0  0  0  0  0  0  0  0
   -8.2215    0.7259   -1.1891 H   0  0  0  0  0  0  0  0  0  0  0  0
   -8.8784    1.8885   -0.0631 H   0  0  0  0  0  0  0  0  0  0  0  0
   -6.7455   -2.3331    0.7918 H   0  0  0  0  0  0  0  0  0  0  0  0
   -8.0765   -1.6717   -0.1903 H   0  0  0  0  0  0  0  0  0  0  0  0
   -6.9121   -2.7726   -0.9084 H   0  0  0  0  0  0  0  0  0  0  0  0
    0.3108   -3.7731    1.3811 H   0  0  0  0  0  0  0  0  0  0  0  0
    2.0055   -5.4454    0.7340 H   0  0  0  0  0  0  0  0  0  0  0  0
    1.1619    0.4360   -1.9991 H   0  0  0  0  0  0  0  0  0  0  0  0
    1.2000    1.9309    2.0201 H   0  0  0  0  0  0  0  0  0  0  0  0
  1 30  1  0  0  0  0
  2 31  1  0  0  0  0
  3  8  1  0  0  0  0
  3 12  1  0  0  0  0
  4 18  1  0  0  0  0
  4 25  1  0  0  0  0
  5 15  2  0  0  0  0
  6 13  1  0  0  0  0
  6 16  1  0  0  0  0
  6 17  1  0  0  0  0
  7  8  1  0  0  0  0
  7 10  1  0  0  0  0
  7 32  1  0  0  0  0
  7 33  1  0  0  0  0
  8  9  2  0  0  0  0
  9 11  1  0  0  0  0
  9 15  1  0  0  0  0
 10 14  1  0  0  0  0
 10 34  1  0  0  0  0
 10 35  1  0  0  0  0
 11 12  2  0  0  0  0
 11 19  1  0  0  0  0
 12 21  1  0  0  0  0
 13 18  1  0  0  0  0
 13 36  1  0  0  0  0
 13 37  1  0  0  0  0
 14 22  1  0  0  0  0
 14 38  1  0  0  0  0
 14 39  1  0  0  0  0
 15 20  1  0  0  0  0
 16 23  1  0  0  0  0
 16 40  1  0  0  0  0
 16 41  1  0  0  0  0
 17 24  1  0  0  0  0
 17 42  1  0  0  0  0
 17 43  1  0  0  0  0
 18 44  1  0  0  0  0
 18 45  1  0  0  0  0
 19 26  2  0  0  0  0
 19 46  1  0  0  0  0
 20 28  2  0  0  0  0
 20 29  1  0  0  0  0
 21 27  2  0  0  0  0
 21 47  1  0  0  0  0
 22 48  1  0  0  0  0
 22 49  1  0  0  0  0
 22 50  1  0  0  0  0
 23 51  1  0  0  0  0
 23 52  1  0  0  0  0
 23 53  1  0  0  0  0
 24 54  1  0  0  0  0
 24 55  1  0  0  0  0
 24 56  1  0  0  0  0
 25 30  2  0  0  0  0
 25 31  1  0  0  0  0
 26 27  1  0  0  0  0
 26 57  1  0  0  0  0
 27 58  1  0  0  0  0
 28 30  1  0  0  0  0
 28 59  1  0  0  0  0
 29 31  2  0  0  0  0
 29 60  1  0  0  0  0
M  END
