DB02925
 OpenBabel07062211533D

 43 45  0  0  0  0  0  0  0  0999 V2000
    0.5843   -3.2235    1.4133 S   0  0  0  0  0  0  0  0  0  0  0  0
   -0.7722   -0.5574    1.2404 O   0  0  0  0  0  0  0  0  0  0  0  0
    1.6705   -4.0800    1.8647 O   0  0  0  0  0  0  0  0  0  0  0  0
   -0.5118   -2.9046    2.3155 O   0  0  0  0  0  0  0  0  0  0  0  0
    4.9435    0.7097   -0.9665 O   0  0  0  0  0  0  0  0  0  0  0  0
    5.3001   -1.4990   -0.5658 O   0  0  0  0  0  0  0  0  0  0  0  0
    0.3305    1.8507    0.3071 N   0  0  0  0  0  0  0  0  0  0  0  0
   -0.0611   -3.8636   -0.0327 N   0  0  0  0  0  0  0  0  0  0  0  0
    0.5350    2.9215   -0.6654 C   0  0  0  0  0  0  0  0  0  0  0  0
   -0.7451    2.1702    1.2425 C   0  0  0  0  0  0  0  0  0  0  0  0
   -0.6850    3.8208   -0.4792 C   0  0  0  0  0  0  0  0  0  0  0  0
   -1.0165    3.6521    0.9933 C   0  0  0  0  0  0  0  0  0  0  0  0
    1.0613    0.6825    0.3375 C   0  0  0  0  0  0  0  0  0  0  0  0
    0.5217   -0.5502    0.8069 C   0  0  0  0  0  0  0  0  0  0  0  0
    2.4142    0.6431   -0.1050 C   0  0  0  0  0  0  0  0  0  0  0  0
    1.2741   -1.7246    0.8313 C   0  0  0  0  0  0  0  0  0  0  0  0
    3.1665   -0.5311   -0.0806 C   0  0  0  0  0  0  0  0  0  0  0  0
    2.5964   -1.7150    0.3874 C   0  0  0  0  0  0  0  0  0  0  0  0
    4.5453   -0.5212   -0.5432 C   0  0  0  0  0  0  0  0  0  0  0  0
   -1.7581   -0.8271    0.3086 C   0  0  0  0  0  0  0  0  0  0  0  0
   -1.3969   -1.0747   -1.0043 C   0  0  0  0  0  0  0  0  0  0  0  0
   -3.0820   -0.8425    0.7115 C   0  0  0  0  0  0  0  0  0  0  0  0
   -2.3913   -1.3460   -1.9441 C   0  0  0  0  0  0  0  0  0  0  0  0
   -4.0763   -1.1139   -0.2283 C   0  0  0  0  0  0  0  0  0  0  0  0
   -3.7309   -1.3656   -1.5562 C   0  0  0  0  0  0  0  0  0  0  0  0
    0.5899    2.5454   -1.6924 H   0  0  0  0  0  0  0  0  0  0  0  0
    1.4513    3.4758   -0.4328 H   0  0  0  0  0  0  0  0  0  0  0  0
   -0.4668    1.9924    2.2864 H   0  0  0  0  0  0  0  0  0  0  0  0
   -1.6677    1.6412    1.0045 H   0  0  0  0  0  0  0  0  0  0  0  0
   -1.5173    3.4552   -1.0930 H   0  0  0  0  0  0  0  0  0  0  0  0
   -0.4857    4.8597   -0.7560 H   0  0  0  0  0  0  0  0  0  0  0  0
   -0.3383    4.2641    1.6003 H   0  0  0  0  0  0  0  0  0  0  0  0
   -2.0439    3.9387    1.2349 H   0  0  0  0  0  0  0  0  0  0  0  0
    2.8545    1.5721   -0.4608 H   0  0  0  0  0  0  0  0  0  0  0  0
    3.1839   -2.6294    0.3968 H   0  0  0  0  0  0  0  0  0  0  0  0
    0.4135   -4.6750   -0.4473 H   0  0  0  0  0  0  0  0  0  0  0  0
   -1.0839   -3.8915   -0.1264 H   0  0  0  0  0  0  0  0  0  0  0  0
   -0.3796   -1.0717   -1.3786 H   0  0  0  0  0  0  0  0  0  0  0  0
   -3.3521   -0.6465    1.7449 H   0  0  0  0  0  0  0  0  0  0  0  0
   -2.1235   -1.5412   -2.9785 H   0  0  0  0  0  0  0  0  0  0  0  0
   -5.1194   -1.1291    0.0738 H   0  0  0  0  0  0  0  0  0  0  0  0
    5.8741    0.7056   -1.2768 H   0  0  0  0  0  0  0  0  0  0  0  0
   -4.5052   -1.5768   -2.2879 H   0  0  0  0  0  0  0  0  0  0  0  0
  1  3  2  0  0  0  0
  1  4  2  0  0  0  0
  1  8  1  0  0  0  0
  1 16  1  0  0  0  0
  2 14  1  0  0  0  0
  2 20  1  0  0  0  0
  5 19  1  0  0  0  0
  5 42  1  0  0  0  0
  6 19  2  0  0  0  0
  7  9  1  0  0  0  0
  7 10  1  0  0  0  0
  7 13  1  0  0  0  0
  8 36  1  0  0  0  0
  8 37  1  0  0  0  0
  9 11  1  0  0  0  0
  9 26  1  0  0  0  0
  9 27  1  0  0  0  0
 10 12  1  0  0  0  0
 10 28  1  0  0  0  0
 10 29  1  0  0  0  0
 11 12  1  0  0  0  0
 11 30  1  0  0  0  0
 11 31  1  0  0  0  0
 12 32  1  0  0  0  0
 12 33  1  0  0  0  0
 13 14  2  0  0  0  0
 13 15  1  0  0  0  0
 14 16  1  0  0  0  0
 15 17  2  0  0  0  0
 15 34  1  0  0  0  0
 16 18  2  0  0  0  0
 17 18  1  0  0  0  0
 17 19  1  0  0  0  0
 18 35  1  0  0  0  0
 20 21  2  0  0  0  0
 20 22  1  0  0  0  0
 21 23  1  0  0  0  0
 21 38  1  0  0  0  0
 22 24  2  0  0  0  0
 22 39  1  0  0  0  0
 23 25  2  0  0  0  0
 23 40  1  0  0  0  0
 24 25  1  0  0  0  0
 24 41  1  0  0  0  0
 25 43  1  0  0  0  0
M  END
