DB02325
 OpenBabel07062211533D

 12 11  0  0  0  0  0  0  0  0999 V2000
    0.0001   -1.6339    0.3497 O   0  0  0  0  0  0  0  0  0  0  0  0
   -0.0000   -0.2192    0.5158 C   0  0  0  0  0  0  0  0  0  0  0  0
    1.2601    0.3584   -0.1104 C   0  0  0  0  0  0  0  0  0  0  0  0
   -1.2601    0.3583   -0.1104 C   0  0  0  0  0  0  0  0  0  0  0  0
    0.0001   -0.0155    1.5916 H   0  0  0  0  0  0  0  0  0  0  0  0
    1.3083    1.4434    0.0226 H   0  0  0  0  0  0  0  0  0  0  0  0
    2.1507   -0.0897    0.3429 H   0  0  0  0  0  0  0  0  0  0  0  0
    1.3063    0.1342   -1.1818 H   0  0  0  0  0  0  0  0  0  0  0  0
   -1.3085    1.4433    0.0226 H   0  0  0  0  0  0  0  0  0  0  0  0
   -2.1508   -0.0900    0.3430 H   0  0  0  0  0  0  0  0  0  0  0  0
   -1.3064    0.1341   -1.1818 H   0  0  0  0  0  0  0  0  0  0  0  0
    0.0003   -1.8234   -0.6041 H   0  0  0  0  0  0  0  0  0  0  0  0
  1  2  1  0  0  0  0
  1 12  1  0  0  0  0
  2  3  1  0  0  0  0
  2  4  1  0  0  0  0
  2  5  1  0  0  0  0
  3  6  1  0  0  0  0
  3  7  1  0  0  0  0
  3  8  1  0  0  0  0
  4  9  1  0  0  0  0
  4 10  1  0  0  0  0
  4 11  1  0  0  0  0
M  END
