DB02513
 OpenBabel07062211533D

 25 25  0  0  0  0  0  0  0  0999 V2000
   -0.1507   -2.5291   -0.2404 O   0  0  0  0  0  0  0  0  0  0  0  0
   -1.8964   -0.2754   -0.0552 C   0  0  0  0  0  0  0  0  0  0  0  0
   -0.4085   -0.1545   -0.0397 C   0  0  0  0  0  0  0  0  0  0  0  0
   -2.5312    0.4403   -1.2618 C   0  0  0  0  0  0  0  0  0  0  0  0
   -2.5403    0.2271    1.2502 C   0  0  0  0  0  0  0  0  0  0  0  0
    0.4000   -1.2875   -0.1329 C   0  0  0  0  0  0  0  0  0  0  0  0
    0.1718    1.1092    0.0695 C   0  0  0  0  0  0  0  0  0  0  0  0
    2.3688    0.1071   -0.0077 C   0  0  0  0  0  0  0  0  0  0  0  0
    1.7885   -1.1566   -0.1170 C   0  0  0  0  0  0  0  0  0  0  0  0
    1.5605    1.2401    0.0855 C   0  0  0  0  0  0  0  0  0  0  0  0
    3.8534    0.2472    0.0095 C   0  0  0  0  0  0  0  0  0  0  0  0
   -2.2087   -1.3192   -0.1582 H   0  0  0  0  0  0  0  0  0  0  0  0
   -2.3797    1.5244   -1.2227 H   0  0  0  0  0  0  0  0  0  0  0  0
   -3.6110    0.2578   -1.2928 H   0  0  0  0  0  0  0  0  0  0  0  0
   -2.1017    0.0749   -2.2011 H   0  0  0  0  0  0  0  0  0  0  0  0
   -2.1197   -0.2949    2.1168 H   0  0  0  0  0  0  0  0  0  0  0  0
   -3.6205    0.0450    1.2405 H   0  0  0  0  0  0  0  0  0  0  0  0
   -2.3866    1.3015    1.3974 H   0  0  0  0  0  0  0  0  0  0  0  0
   -0.4366    2.0063    0.1430 H   0  0  0  0  0  0  0  0  0  0  0  0
    2.4138   -2.0432   -0.1917 H   0  0  0  0  0  0  0  0  0  0  0  0
    2.0008    2.2301    0.1692 H   0  0  0  0  0  0  0  0  0  0  0  0
    4.3269   -0.6257    0.4716 H   0  0  0  0  0  0  0  0  0  0  0  0
    4.2326    0.3530   -1.0118 H   0  0  0  0  0  0  0  0  0  0  0  0
    4.1616    1.1232    0.5904 H   0  0  0  0  0  0  0  0  0  0  0  0
   -0.8871   -2.6009    0.3893 H   0  0  0  0  0  0  0  0  0  0  0  0
  1  6  1  0  0  0  0
  1 25  1  0  0  0  0
  2  3  1  0  0  0  0
  2  4  1  0  0  0  0
  2  5  1  0  0  0  0
  2 12  1  0  0  0  0
  3  6  2  0  0  0  0
  3  7  1  0  0  0  0
  4 13  1  0  0  0  0
  4 14  1  0  0  0  0
  4 15  1  0  0  0  0
  5 16  1  0  0  0  0
  5 17  1  0  0  0  0
  5 18  1  0  0  0  0
  6  9  1  0  0  0  0
  7 10  2  0  0  0  0
  7 19  1  0  0  0  0
  8  9  2  0  0  0  0
  8 10  1  0  0  0  0
  8 11  1  0  0  0  0
  9 20  1  0  0  0  0
 10 21  1  0  0  0  0
 11 22  1  0  0  0  0
 11 23  1  0  0  0  0
 11 24  1  0  0  0  0
M  END
