DB02772
 OpenBabel07062211533D

 45 46  0  0  1  0  0  0  0  0999 V2000
    1.5022    0.0943    0.9911 O   0  0  0  0  0  0  0  0  0  0  0  0
    0.7011   -0.6170   -1.0981 O   0  0  0  0  0  0  0  0  0  0  0  0
   -0.8588    0.4043    0.3198 O   0  0  0  0  0  0  0  0  0  0  0  0
    3.1624   -1.6445   -1.6958 O   0  0  0  0  0  0  0  0  0  0  0  0
    4.7371    0.6740   -0.3864 O   0  0  0  0  0  0  0  0  0  0  0  0
   -1.0123    1.0322   -2.5058 O   0  0  0  0  0  0  0  0  0  0  0  0
   -3.5317   -1.3244   -1.3669 O   0  0  0  0  0  0  0  0  0  0  0  0
   -2.9770    2.2093   -0.7501 O   0  0  0  0  0  0  0  0  0  0  0  0
    1.8711   -2.5588    1.7519 O   0  0  0  0  0  0  0  0  0  0  0  0
    1.4739    2.7767    1.8206 O   0  0  0  0  0  0  0  0  0  0  0  0
   -3.8799   -0.4306    2.2034 O   0  0  0  0  0  0  0  0  0  0  0  0
    1.5351   -0.9590    0.0101 C   0  0  1  0  0  0  0  0  0  0  0  0
    2.9902   -1.0104   -0.4441 C   0  0  2  0  0  0  0  0  0  0  0  0
    3.3409    0.4618   -0.4826 C   0  0  1  0  0  0  0  0  0  0  0  0
    2.6255    0.9698    0.7640 C   0  0  1  0  0  0  0  0  0  0  0  0
   -0.6719   -0.5579   -0.7161 C   0  0  1  0  0  0  0  0  0  0  0  0
   -1.5011   -0.1882   -1.9477 C   0  0  1  0  0  0  0  0  0  0  0  0
   -2.9815   -0.0305   -1.5933 C   0  0  2  0  0  0  0  0  0  0  0  0
   -3.1816    0.8498   -0.3528 C   0  0  1  0  0  0  0  0  0  0  0  0
   -2.2061    0.5286    0.7927 C   0  0  1  0  0  0  0  0  0  0  0  0
    1.0597   -2.2649    0.6275 C   0  0  0  0  0  0  0  0  0  0  0  0
    2.1313    2.3991    0.6222 C   0  0  0  0  0  0  0  0  0  0  0  0
   -2.6137   -0.6862    1.6239 C   0  0  0  0  0  0  0  0  0  0  0  0
    3.6347   -1.5195    0.2832 H   0  0  0  0  0  0  0  0  0  0  0  0
    2.9813    0.9296   -1.4066 H   0  0  0  0  0  0  0  0  0  0  0  0
    3.2646    0.8944    1.6527 H   0  0  0  0  0  0  0  0  0  0  0  0
   -1.0240   -1.5454   -0.4114 H   0  0  0  0  0  0  0  0  0  0  0  0
   -1.3738   -0.9610   -2.7155 H   0  0  0  0  0  0  0  0  0  0  0  0
   -3.5071    0.4140   -2.4474 H   0  0  0  0  0  0  0  0  0  0  0  0
   -4.2187    0.7781   -0.0073 H   0  0  0  0  0  0  0  0  0  0  0  0
   -2.1918    1.3938    1.4680 H   0  0  0  0  0  0  0  0  0  0  0  0
    1.1031   -3.0921   -0.0886 H   0  0  0  0  0  0  0  0  0  0  0  0
    0.0517   -2.2107    1.0407 H   0  0  0  0  0  0  0  0  0  0  0  0
    1.4104    2.4957   -0.1965 H   0  0  0  0  0  0  0  0  0  0  0  0
    2.9596    3.0918    0.4475 H   0  0  0  0  0  0  0  0  0  0  0  0
   -1.8852   -0.8752    2.4199 H   0  0  0  0  0  0  0  0  0  0  0  0
   -2.6843   -1.6034    1.0353 H   0  0  0  0  0  0  0  0  0  0  0  0
    4.0891   -1.5181   -1.9617 H   0  0  0  0  0  0  0  0  0  0  0  0
    4.8835    1.6334   -0.3264 H   0  0  0  0  0  0  0  0  0  0  0  0
   -0.0632    0.9124   -2.6800 H   0  0  0  0  0  0  0  0  0  0  0  0
   -4.4760   -1.2107   -1.1652 H   0  0  0  0  0  0  0  0  0  0  0  0
   -3.1835    2.7732    0.0148 H   0  0  0  0  0  0  0  0  0  0  0  0
    1.5646   -3.4072    2.1148 H   0  0  0  0  0  0  0  0  0  0  0  0
    0.7403    2.1536    1.9609 H   0  0  0  0  0  0  0  0  0  0  0  0
   -3.7901    0.3461    2.7813 H   0  0  0  0  0  0  0  0  0  0  0  0
  1 12  1  0  0  0  0
  1 15  1  0  0  0  0
  2 12  1  0  0  0  0
  2 16  1  0  0  0  0
  3 16  1  0  0  0  0
  3 20  1  0  0  0  0
  4 13  1  0  0  0  0
  4 38  1  0  0  0  0
  5 14  1  0  0  0  0
  5 39  1  0  0  0  0
  6 17  1  0  0  0  0
  6 40  1  0  0  0  0
  7 18  1  0  0  0  0
  7 41  1  0  0  0  0
  8 19  1  0  0  0  0
  8 42  1  0  0  0  0
  9 21  1  0  0  0  0
  9 43  1  0  0  0  0
 10 22  1  0  0  0  0
 10 44  1  0  0  0  0
 11 23  1  0  0  0  0
 11 45  1  0  0  0  0
 12 13  1  6  0  0  0
 12 21  1  0  0  0  0
 13 14  1  6  0  0  0
 13 24  1  0  0  0  0
 14 15  1  1  0  0  0
 14 25  1  0  0  0  0
 15 22  1  0  0  0  0
 15 26  1  1  0  0  0
 16 17  1  6  0  0  0
 16 27  1  0  0  0  0
 17 18  1  1  0  0  0
 17 28  1  0  0  0  0
 18 19  1  1  0  0  0
 18 29  1  0  0  0  0
 19 20  1  1  0  0  0
 19 30  1  0  0  0  0
 20 23  1  0  0  0  0
 20 31  1  1  0  0  0
 21 32  1  0  0  0  0
 21 33  1  0  0  0  0
 22 34  1  0  0  0  0
 22 35  1  0  0  0  0
 23 36  1  0  0  0  0
 23 37  1  0  0  0  0
M  END
