DB02266
 OpenBabel07062211533D

 30 31  0  0  0  0  0  0  0  0999 V2000
   -4.9762    1.5124    0.9935 F   0  0  0  0  0  0  0  0  0  0  0  0
   -3.2937    1.6348    2.3649 F   0  0  0  0  0  0  0  0  0  0  0  0
   -3.2323    2.7117    0.4705 F   0  0  0  0  0  0  0  0  0  0  0  0
    4.2446   -1.9664    0.7479 O   0  0  0  0  0  0  0  0  0  0  0  0
    2.0988   -2.3075    1.4156 O   0  0  0  0  0  0  0  0  0  0  0  0
    0.3832   -0.9766   -0.3201 N   0  0  0  0  0  0  0  0  0  0  0  0
   -1.0176   -0.8509   -0.2822 C   0  0  0  0  0  0  0  0  0  0  0  0
    1.4276   -0.0257   -0.3410 C   0  0  0  0  0  0  0  0  0  0  0  0
   -2.9951    0.3745    0.3808 C   0  0  0  0  0  0  0  0  0  0  0  0
   -1.6063    0.2495    0.3447 C   0  0  0  0  0  0  0  0  0  0  0  0
    2.6707   -0.3147    0.2216 C   0  0  0  0  0  0  0  0  0  0  0  0
   -1.8249   -1.8256   -0.8729 C   0  0  0  0  0  0  0  0  0  0  0  0
   -3.7987   -0.6005   -0.2098 C   0  0  0  0  0  0  0  0  0  0  0  0
    1.2026    1.2162   -0.9350 C   0  0  0  0  0  0  0  0  0  0  0  0
   -3.2136   -1.7006   -0.8368 C   0  0  0  0  0  0  0  0  0  0  0  0
    3.6889    0.6381    0.1904 C   0  0  0  0  0  0  0  0  0  0  0  0
   -3.6213    1.5501    1.0512 C   0  0  0  0  0  0  0  0  0  0  0  0
    2.2208    2.1689   -0.9663 C   0  0  0  0  0  0  0  0  0  0  0  0
    3.4641    1.8800   -0.4036 C   0  0  0  0  0  0  0  0  0  0  0  0
    2.9381   -1.6025    0.8496 C   0  0  0  0  0  0  0  0  0  0  0  0
    0.7033   -1.9390   -0.3787 H   0  0  0  0  0  0  0  0  0  0  0  0
   -0.9977    1.0081    0.8310 H   0  0  0  0  0  0  0  0  0  0  0  0
   -1.3814   -2.6872   -1.3658 H   0  0  0  0  0  0  0  0  0  0  0  0
   -4.8823   -0.5227   -0.1932 H   0  0  0  0  0  0  0  0  0  0  0  0
    0.2536    1.4624   -1.4034 H   0  0  0  0  0  0  0  0  0  0  0  0
   -3.8392   -2.4598   -1.2971 H   0  0  0  0  0  0  0  0  0  0  0  0
    4.6643    0.4496    0.6313 H   0  0  0  0  0  0  0  0  0  0  0  0
    2.0476    3.1342   -1.4331 H   0  0  0  0  0  0  0  0  0  0  0  0
    4.2560    2.6230   -0.4266 H   0  0  0  0  0  0  0  0  0  0  0  0
    4.4162   -2.8340    1.1724 H   0  0  0  0  0  0  0  0  0  0  0  0
  1 17  1  0  0  0  0
  2 17  1  0  0  0  0
  3 17  1  0  0  0  0
  4 20  1  0  0  0  0
  4 30  1  0  0  0  0
  5 20  2  0  0  0  0
  6  7  1  0  0  0  0
  6  8  1  0  0  0  0
  6 21  1  0  0  0  0
  7 10  2  0  0  0  0
  7 12  1  0  0  0  0
  8 11  2  0  0  0  0
  8 14  1  0  0  0  0
  9 10  1  0  0  0  0
  9 13  2  0  0  0  0
  9 17  1  0  0  0  0
 10 22  1  0  0  0  0
 11 16  1  0  0  0  0
 11 20  1  0  0  0  0
 12 15  2  0  0  0  0
 12 23  1  0  0  0  0
 13 15  1  0  0  0  0
 13 24  1  0  0  0  0
 14 18  2  0  0  0  0
 14 25  1  0  0  0  0
 15 26  1  0  0  0  0
 16 19  2  0  0  0  0
 16 27  1  0  0  0  0
 18 19  1  0  0  0  0
 18 28  1  0  0  0  0
 19 29  1  0  0  0  0
M  END
