DB02362
 OpenBabel07062211533D

 17 17  0  0  0  0  0  0  0  0999 V2000
   -3.1880   -0.8841   -0.0005 O   0  0  0  0  0  0  0  0  0  0  0  0
   -3.1779    1.3889   -0.0001 O   0  0  0  0  0  0  0  0  0  0  0  0
    3.0753   -0.1903   -0.0005 N   0  0  0  0  0  0  0  0  0  0  0  0
   -1.1075    0.1899    0.0007 C   0  0  0  0  0  0  0  0  0  0  0  0
    1.6707   -0.0628   -0.0002 C   0  0  0  0  0  0  0  0  0  0  0  0
   -0.3037    1.3297    0.0004 C   0  0  0  0  0  0  0  0  0  0  0  0
   -0.5223   -1.0764    0.0006 C   0  0  0  0  0  0  0  0  0  0  0  0
    1.0854    1.2034   -0.0000 C   0  0  0  0  0  0  0  0  0  0  0  0
    0.8668   -1.2028    0.0002 C   0  0  0  0  0  0  0  0  0  0  0  0
   -2.5558    0.3215    0.0004 C   0  0  0  0  0  0  0  0  0  0  0  0
   -0.7402    2.3252    0.0004 H   0  0  0  0  0  0  0  0  0  0  0  0
   -1.1104   -1.9899    0.0008 H   0  0  0  0  0  0  0  0  0  0  0  0
    1.7012    2.0992   -0.0004 H   0  0  0  0  0  0  0  0  0  0  0  0
    1.3114   -2.1948    0.0001 H   0  0  0  0  0  0  0  0  0  0  0  0
    3.5002   -1.1080   -0.0003 H   0  0  0  0  0  0  0  0  0  0  0  0
    3.6586    0.6358   -0.0002 H   0  0  0  0  0  0  0  0  0  0  0  0
   -4.1639   -0.7843   -0.0013 H   0  0  0  0  0  0  0  0  0  0  0  0
  1 10  1  0  0  0  0
  1 17  1  0  0  0  0
  2 10  2  0  0  0  0
  3  5  1  0  0  0  0
  3 15  1  0  0  0  0
  3 16  1  0  0  0  0
  4  6  2  0  0  0  0
  4  7  1  0  0  0  0
  4 10  1  0  0  0  0
  5  8  2  0  0  0  0
  5  9  1  0  0  0  0
  6  8  1  0  0  0  0
  6 11  1  0  0  0  0
  7  9  2  0  0  0  0
  7 12  1  0  0  0  0
  8 13  1  0  0  0  0
  9 14  1  0  0  0  0
M  END
