DB03312
 OpenBabel07062211533D

 32 33  0  0  1  0  0  0  0  0999 V2000
   -3.6326    3.9015   -0.6267 Br  0  0  0  0  0  0  0  0  0  0  0  0
    1.2727   -0.0403    1.2940 O   0  0  0  0  0  0  0  0  0  0  0  0
    3.9180   -1.0518    0.1311 O   0  0  0  0  0  0  0  0  0  0  0  0
    1.2278    2.7578    1.1443 O   0  0  0  0  0  0  0  0  0  0  0  0
   -0.4917   -3.6134    0.3305 O   0  0  0  0  0  0  0  0  0  0  0  0
   -4.4971   -1.4187   -0.1653 O   0  0  0  0  0  0  0  0  0  0  0  0
   -0.4658   -1.2794    0.3365 N   0  0  0  0  0  0  0  0  0  0  0  0
   -2.4812   -2.5003    0.0847 N   0  0  0  0  0  0  0  0  0  0  0  0
    2.8953   -0.2281   -0.4246 C   0  0  1  0  0  0  0  0  0  0  0  0
    0.9548   -1.2004    0.5121 C   0  0  1  0  0  0  0  0  0  0  0  0
    1.7058   -1.0795   -0.8039 C   0  0  0  0  0  0  0  0  0  0  0  0
    2.3317    0.6930    0.6485 C   0  0  1  0  0  0  0  0  0  0  0  0
    1.7344    1.9725    0.0772 C   0  0  0  0  0  0  0  0  0  0  0  0
   -1.2169   -0.1138    0.2454 C   0  0  0  0  0  0  0  0  0  0  0  0
   -1.0939   -2.5402    0.2570 C   0  0  0  0  0  0  0  0  0  0  0  0
   -2.5460   -0.0753    0.0808 C   0  0  0  0  0  0  0  0  0  0  0  0
   -3.2791   -1.3698   -0.0124 C   0  0  0  0  0  0  0  0  0  0  0  0
   -3.2660    1.1690   -0.0063 C   0  0  0  0  0  0  0  0  0  0  0  0
   -2.7298    2.2855   -0.5017 C   0  0  0  0  0  0  0  0  0  0  0  0
    3.3302    0.3116   -1.2710 H   0  0  0  0  0  0  0  0  0  0  0  0
    1.3132   -2.0731    1.0712 H   0  0  0  0  0  0  0  0  0  0  0  0
    1.1021   -0.5563   -1.5554 H   0  0  0  0  0  0  0  0  0  0  0  0
    1.9685   -2.0622   -1.2082 H   0  0  0  0  0  0  0  0  0  0  0  0
    3.0706    0.9333    1.4210 H   0  0  0  0  0  0  0  0  0  0  0  0
    0.9295    1.7852   -0.6370 H   0  0  0  0  0  0  0  0  0  0  0  0
    2.5108    2.5538   -0.4314 H   0  0  0  0  0  0  0  0  0  0  0  0
    4.2099   -1.6633   -0.5663 H   0  0  0  0  0  0  0  0  0  0  0  0
   -0.6648    0.8071    0.3419 H   0  0  0  0  0  0  0  0  0  0  0  0
   -2.9550   -3.3973    0.0241 H   0  0  0  0  0  0  0  0  0  0  0  0
    0.8601    3.5687    0.7534 H   0  0  0  0  0  0  0  0  0  0  0  0
   -4.2915    1.1700    0.3535 H   0  0  0  0  0  0  0  0  0  0  0  0
   -1.7242    2.3541   -0.8971 H   0  0  0  0  0  0  0  0  0  0  0  0
  1 19  1  0  0  0  0
  2 10  1  0  0  0  0
  2 12  1  0  0  0  0
  3  9  1  0  0  0  0
  3 27  1  0  0  0  0
  4 13  1  0  0  0  0
  4 30  1  0  0  0  0
  5 15  2  0  0  0  0
  6 17  2  0  0  0  0
  7 10  1  0  0  0  0
  7 14  1  0  0  0  0
  7 15  1  0  0  0  0
  8 15  1  0  0  0  0
  8 17  1  0  0  0  0
  8 29  1  0  0  0  0
  9 11  1  0  0  0  0
  9 12  1  1  0  0  0
  9 20  1  0  0  0  0
 10 11  1  0  0  0  0
 10 21  1  1  0  0  0
 11 22  1  0  0  0  0
 11 23  1  0  0  0  0
 12 13  1  0  0  0  0
 12 24  1  1  0  0  0
 13 25  1  0  0  0  0
 13 26  1  0  0  0  0
 14 16  2  0  0  0  0
 14 28  1  0  0  0  0
 16 17  1  0  0  0  0
 16 18  1  0  0  0  0
 18 19  2  0  0  0  0
 18 31  1  0  0  0  0
 19 32  1  0  0  0  0
M  END
