DB03796
 OpenBabel07062211533D

 50 49  0  0  0  0  0  0  0  0999 V2000
  -10.6542   -0.5140    0.1001 O   0  0  0  0  0  0  0  0  0  0  0  0
   -9.6082    1.4970   -0.0382 O   0  0  0  0  0  0  0  0  0  0  0  0
    0.6860    0.4829   -0.0674 C   0  0  0  0  0  0  0  0  0  0  0  0
   -0.5687   -0.3922   -0.0751 C   0  0  0  0  0  0  0  0  0  0  0  0
    1.9544   -0.3741   -0.0817 C   0  0  0  0  0  0  0  0  0  0  0  0
   -1.8759    0.4061   -0.0476 C   0  0  0  0  0  0  0  0  0  0  0  0
    3.2111    0.4967   -0.0375 C   0  0  0  0  0  0  0  0  0  0  0  0
   -3.1646   -0.4203    0.0309 C   0  0  0  0  0  0  0  0  0  0  0  0
    4.5138   -0.3074   -0.0881 C   0  0  0  0  0  0  0  0  0  0  0  0
   -4.4386    0.4284    0.0058 C   0  0  0  0  0  0  0  0  0  0  0  0
    5.8094    0.5027    0.0382 C   0  0  0  0  0  0  0  0  0  0  0  0
   -5.6915   -0.4484    0.0067 C   0  0  0  0  0  0  0  0  0  0  0  0
    7.0729   -0.3618    0.0431 C   0  0  0  0  0  0  0  0  0  0  0  0
   -7.0021    0.3478    0.0213 C   0  0  0  0  0  0  0  0  0  0  0  0
    8.3667    0.4564    0.0797 C   0  0  0  0  0  0  0  0  0  0  0  0
   -8.2666   -0.5114    0.0339 C   0  0  0  0  0  0  0  0  0  0  0  0
    9.6275   -0.3939    0.0544 C   0  0  0  0  0  0  0  0  0  0  0  0
   -9.5545    0.2749    0.0158 C   0  0  0  0  0  0  0  0  0  0  0  0
    0.6766    1.1462   -0.9406 H   0  0  0  0  0  0  0  0  0  0  0  0
    0.6810    1.1206    0.8247 H   0  0  0  0  0  0  0  0  0  0  0  0
   -0.5626   -1.0327   -0.9658 H   0  0  0  0  0  0  0  0  0  0  0  0
   -0.5462   -1.0611    0.7943 H   0  0  0  0  0  0  0  0  0  0  0  0
    1.9520   -1.0548    0.7782 H   0  0  0  0  0  0  0  0  0  0  0  0
    1.9694   -0.9943   -0.9859 H   0  0  0  0  0  0  0  0  0  0  0  0
   -1.9159    1.0377   -0.9442 H   0  0  0  0  0  0  0  0  0  0  0  0
   -1.8518    1.0904    0.8102 H   0  0  0  0  0  0  0  0  0  0  0  0
    3.1983    1.2018   -0.8777 H   0  0  0  0  0  0  0  0  0  0  0  0
    3.2000    1.0982    0.8798 H   0  0  0  0  0  0  0  0  0  0  0  0
   -3.1471   -1.0244    0.9462 H   0  0  0  0  0  0  0  0  0  0  0  0
   -3.1819   -1.1231   -0.8114 H   0  0  0  0  0  0  0  0  0  0  0  0
    4.4930   -1.0522    0.7181 H   0  0  0  0  0  0  0  0  0  0  0  0
    4.5418   -0.8728   -1.0283 H   0  0  0  0  0  0  0  0  0  0  0  0
   -4.4403    1.0647   -0.8872 H   0  0  0  0  0  0  0  0  0  0  0  0
   -4.4516    1.0939    0.8771 H   0  0  0  0  0  0  0  0  0  0  0  0
    5.8606    1.2170   -0.7926 H   0  0  0  0  0  0  0  0  0  0  0  0
    5.7756    1.0935    0.9616 H   0  0  0  0  0  0  0  0  0  0  0  0
   -5.6700   -1.1081    0.8831 H   0  0  0  0  0  0  0  0  0  0  0  0
   -5.6799   -1.0978   -0.8774 H   0  0  0  0  0  0  0  0  0  0  0  0
    7.0461   -1.0365    0.9074 H   0  0  0  0  0  0  0  0  0  0  0  0
    7.0775   -0.9951   -0.8526 H   0  0  0  0  0  0  0  0  0  0  0  0
   -7.0258    1.0076   -0.8555 H   0  0  0  0  0  0  0  0  0  0  0  0
   -7.0104    1.0077    0.8984 H   0  0  0  0  0  0  0  0  0  0  0  0
    8.3762    1.0780    0.9829 H   0  0  0  0  0  0  0  0  0  0  0  0
    8.3871    1.1410   -0.7769 H   0  0  0  0  0  0  0  0  0  0  0  0
   -8.2672   -1.1681   -0.8434 H   0  0  0  0  0  0  0  0  0  0  0  0
   -8.2673   -1.1346    0.9355 H   0  0  0  0  0  0  0  0  0  0  0  0
    9.6610   -1.0666    0.9171 H   0  0  0  0  0  0  0  0  0  0  0  0
   10.5168    0.2432    0.0833 H   0  0  0  0  0  0  0  0  0  0  0  0
    9.6708   -1.0000   -0.8558 H   0  0  0  0  0  0  0  0  0  0  0  0
  -11.4826    0.0115    0.1027 H   0  0  0  0  0  0  0  0  0  0  0  0
  1 18  1  0  0  0  0
  1 50  1  0  0  0  0
  2 18  2  0  0  0  0
  3  4  1  0  0  0  0
  3  5  1  0  0  0  0
  3 19  1  0  0  0  0
  3 20  1  0  0  0  0
  4  6  1  0  0  0  0
  4 21  1  0  0  0  0
  4 22  1  0  0  0  0
  5  7  1  0  0  0  0
  5 23  1  0  0  0  0
  5 24  1  0  0  0  0
  6  8  1  0  0  0  0
  6 25  1  0  0  0  0
  6 26  1  0  0  0  0
  7  9  1  0  0  0  0
  7 27  1  0  0  0  0
  7 28  1  0  0  0  0
  8 10  1  0  0  0  0
  8 29  1  0  0  0  0
  8 30  1  0  0  0  0
  9 11  1  0  0  0  0
  9 31  1  0  0  0  0
  9 32  1  0  0  0  0
 10 12  1  0  0  0  0
 10 33  1  0  0  0  0
 10 34  1  0  0  0  0
 11 13  1  0  0  0  0
 11 35  1  0  0  0  0
 11 36  1  0  0  0  0
 12 14  1  0  0  0  0
 12 37  1  0  0  0  0
 12 38  1  0  0  0  0
 13 15  1  0  0  0  0
 13 39  1  0  0  0  0
 13 40  1  0  0  0  0
 14 16  1  0  0  0  0
 14 41  1  0  0  0  0
 14 42  1  0  0  0  0
 15 17  1  0  0  0  0
 15 43  1  0  0  0  0
 15 44  1  0  0  0  0
 16 18  1  0  0  0  0
 16 45  1  0  0  0  0
 16 46  1  0  0  0  0
 17 47  1  0  0  0  0
 17 48  1  0  0  0  0
 17 49  1  0  0  0  0
M  END
