DB03166
 OpenBabel07062211533D

  8  7  0  0  0  0  0  0  0  0999 V2000
    1.3149    0.7091   -0.0003 O   0  0  0  0  0  0  0  0  0  0  0  0
    0.8326   -1.5188    0.0001 O   0  0  0  0  0  0  0  0  0  0  0  0
   -0.9530    0.1065    0.0002 C   0  0  0  0  0  0  0  0  0  0  0  0
    0.4709   -0.3515   -0.0008 C   0  0  0  0  0  0  0  0  0  0  0  0
   -1.1544    0.6899    0.9020 H   0  0  0  0  0  0  0  0  0  0  0  0
   -1.1523    0.7005   -0.8953 H   0  0  0  0  0  0  0  0  0  0  0  0
   -1.6139   -0.7651   -0.0062 H   0  0  0  0  0  0  0  0  0  0  0  0
    2.2552    0.4293    0.0002 H   0  0  0  0  0  0  0  0  0  0  0  0
  1  4  1  0  0  0  0
  1  8  1  0  0  0  0
  2  4  2  0  0  0  0
  3  4  1  0  0  0  0
  3  5  1  0  0  0  0
  3  6  1  0  0  0  0
  3  7  1  0  0  0  0
M  END
