DB03128
 OpenBabel07062211533D

 26 25  0  0  0  0  0  0  0  0999 V2000
   -2.0429   -0.4052   -0.0159 O   0  0  0  0  0  0  0  0  0  0  0  0
   -3.1179    1.6394    0.0171 O   0  0  0  0  0  0  0  0  0  0  0  0
    1.6753   -0.0872    0.0001 N   0  3  0  0  0  0  0  0  0  0  0  0
    0.3262   -0.7906   -0.0378 C   0  0  0  0  0  0  0  0  0  0  0  0
    1.7667    0.7676    1.2561 C   0  0  0  0  0  0  0  0  0  0  0  0
    2.7882   -1.1252    0.0108 C   0  0  0  0  0  0  0  0  0  0  0  0
    1.8201    0.7993   -1.2284 C   0  0  0  0  0  0  0  0  0  0  0  0
   -0.7795    0.2462   -0.0170 C   0  0  0  0  0  0  0  0  0  0  0  0
   -3.1363    0.4161    0.0022 C   0  0  0  0  0  0  0  0  0  0  0  0
   -4.3904   -0.4043    0.0006 C   0  0  0  0  0  0  0  0  0  0  0  0
    0.2808   -1.4076   -0.9432 H   0  0  0  0  0  0  0  0  0  0  0  0
    0.2607   -1.4594    0.8291 H   0  0  0  0  0  0  0  0  0  0  0  0
    1.4660    0.1634    2.1171 H   0  0  0  0  0  0  0  0  0  0  0  0
    2.8082    1.0851    1.3719 H   0  0  0  0  0  0  0  0  0  0  0  0
    1.1450    1.6604    1.1542 H   0  0  0  0  0  0  0  0  0  0  0  0
    2.7029   -1.7314   -0.8960 H   0  0  0  0  0  0  0  0  0  0  0  0
    3.7514   -0.6068    0.0335 H   0  0  0  0  0  0  0  0  0  0  0  0
    2.6699   -1.7487    0.9021 H   0  0  0  0  0  0  0  0  0  0  0  0
    1.5835    0.2087   -2.1184 H   0  0  0  0  0  0  0  0  0  0  0  0
    1.1686    1.6725   -1.1448 H   0  0  0  0  0  0  0  0  0  0  0  0
    2.8587    1.1432   -1.2752 H   0  0  0  0  0  0  0  0  0  0  0  0
   -0.7437    0.8661    0.8827 H   0  0  0  0  0  0  0  0  0  0  0  0
   -0.7484    0.8882   -0.9020 H   0  0  0  0  0  0  0  0  0  0  0  0
   -4.4201   -1.0374    0.8909 H   0  0  0  0  0  0  0  0  0  0  0  0
   -4.4340   -1.0125   -0.9064 H   0  0  0  0  0  0  0  0  0  0  0  0
   -5.2588    0.2604    0.0167 H   0  0  0  0  0  0  0  0  0  0  0  0
  1  8  1  0  0  0  0
  1  9  1  0  0  0  0
  2  9  2  0  0  0  0
  3  4  1  0  0  0  0
  3  5  1  0  0  0  0
  3  6  1  0  0  0  0
  3  7  1  0  0  0  0
  4  8  1  0  0  0  0
  4 11  1  0  0  0  0
  4 12  1  0  0  0  0
  5 13  1  0  0  0  0
  5 14  1  0  0  0  0
  5 15  1  0  0  0  0
  6 16  1  0  0  0  0
  6 17  1  0  0  0  0
  6 18  1  0  0  0  0
  7 19  1  0  0  0  0
  7 20  1  0  0  0  0
  7 21  1  0  0  0  0
  8 22  1  0  0  0  0
  8 23  1  0  0  0  0
  9 10  1  0  0  0  0
 10 24  1  0  0  0  0
 10 25  1  0  0  0  0
 10 26  1  0  0  0  0
M  CHG  1   3   1
M  END
