DB03585
 OpenBabel07062211533D

 44 46  0  0  1  0  0  0  0  0999 V2000
    1.3165    1.0414   -2.6388 O   0  0  0  0  0  0  0  0  0  0  0  0
    0.8448   -3.0913   -0.4133 O   0  0  0  0  0  0  0  0  0  0  0  0
   -2.5115    4.8767    0.8574 O   0  0  0  0  0  0  0  0  0  0  0  0
   -0.2922    0.1535   -1.1249 N   0  0  0  0  0  0  0  0  0  0  0  0
   -0.4897   -1.1233   -0.5454 N   0  0  0  0  0  0  0  0  0  0  0  0
    1.4961   -1.1982   -1.7594 C   0  0  2  0  0  0  0  0  0  0  0  0
    2.9091   -1.0566   -1.2230 C   0  0  0  0  0  0  0  0  0  0  0  0
    0.8404    0.1484   -1.9535 C   0  0  0  0  0  0  0  0  0  0  0  0
    0.6179   -1.9499   -0.7870 C   0  0  0  0  0  0  0  0  0  0  0  0
    2.9277   -0.3296    0.1213 C   0  0  0  0  0  0  0  0  0  0  0  0
    4.3486   -0.2191    0.6739 C   0  0  0  0  0  0  0  0  0  0  0  0
   -0.8603    1.3619   -0.6184 C   0  0  0  0  0  0  0  0  0  0  0  0
   -1.7616   -1.6401   -0.1529 C   0  0  0  0  0  0  0  0  0  0  0  0
    4.3677    0.4736    2.0272 C   0  0  0  0  0  0  0  0  0  0  0  0
   -0.7594    2.5457   -1.3523 C   0  0  0  0  0  0  0  0  0  0  0  0
   -1.5177    1.3641    0.6138 C   0  0  0  0  0  0  0  0  0  0  0  0
   -1.8397   -2.8204    0.5896 C   0  0  0  0  0  0  0  0  0  0  0  0
   -2.9322   -0.9669   -0.5097 C   0  0  0  0  0  0  0  0  0  0  0  0
   -1.3131    3.7261   -0.8564 C   0  0  0  0  0  0  0  0  0  0  0  0
   -2.0715    2.5444    1.1097 C   0  0  0  0  0  0  0  0  0  0  0  0
   -3.0821   -3.3251    0.9735 C   0  0  0  0  0  0  0  0  0  0  0  0
   -4.1745   -1.4718   -0.1256 C   0  0  0  0  0  0  0  0  0  0  0  0
   -1.9693    3.7255    0.3746 C   0  0  0  0  0  0  0  0  0  0  0  0
   -4.2494   -2.6508    0.6159 C   0  0  0  0  0  0  0  0  0  0  0  0
    1.4847   -1.7266   -2.7189 H   0  0  0  0  0  0  0  0  0  0  0  0
    3.5275   -0.5066   -1.9430 H   0  0  0  0  0  0  0  0  0  0  0  0
    3.3600   -2.0498   -1.1059 H   0  0  0  0  0  0  0  0  0  0  0  0
    2.5139    0.6803    0.0198 H   0  0  0  0  0  0  0  0  0  0  0  0
    2.3108   -0.8594    0.8562 H   0  0  0  0  0  0  0  0  0  0  0  0
    4.9782    0.3411   -0.0270 H   0  0  0  0  0  0  0  0  0  0  0  0
    4.7873   -1.2184    0.7774 H   0  0  0  0  0  0  0  0  0  0  0  0
    3.7747   -0.0815    2.7609 H   0  0  0  0  0  0  0  0  0  0  0  0
    3.9627    1.4880    1.9545 H   0  0  0  0  0  0  0  0  0  0  0  0
    5.3934    0.5436    2.4027 H   0  0  0  0  0  0  0  0  0  0  0  0
   -0.3066    2.5946   -2.3355 H   0  0  0  0  0  0  0  0  0  0  0  0
   -1.5538    0.4985    1.2666 H   0  0  0  0  0  0  0  0  0  0  0  0
   -0.9652   -3.3581    0.9366 H   0  0  0  0  0  0  0  0  0  0  0  0
   -2.9380   -0.0934   -1.1528 H   0  0  0  0  0  0  0  0  0  0  0  0
   -1.2405    4.6409   -1.4382 H   0  0  0  0  0  0  0  0  0  0  0  0
   -2.5647    2.5350    2.0782 H   0  0  0  0  0  0  0  0  0  0  0  0
   -3.1409   -4.2376    1.5597 H   0  0  0  0  0  0  0  0  0  0  0  0
   -5.0849   -0.9568   -0.4188 H   0  0  0  0  0  0  0  0  0  0  0  0
   -5.2168   -3.0446    0.9135 H   0  0  0  0  0  0  0  0  0  0  0  0
   -2.9265    4.6929    1.7177 H   0  0  0  0  0  0  0  0  0  0  0  0
  1  8  2  0  0  0  0
  2  9  2  0  0  0  0
  3 23  1  0  0  0  0
  3 44  1  0  0  0  0
  4  5  1  0  0  0  0
  4  8  1  0  0  0  0
  4 12  1  0  0  0  0
  5  9  1  0  0  0  0
  5 13  1  0  0  0  0
  6  7  1  0  0  0  0
  6  8  1  0  0  0  0
  6  9  1  0  0  0  0
  6 25  1  6  0  0  0
  7 10  1  0  0  0  0
  7 26  1  0  0  0  0
  7 27  1  0  0  0  0
 10 11  1  0  0  0  0
 10 28  1  0  0  0  0
 10 29  1  0  0  0  0
 11 14  1  0  0  0  0
 11 30  1  0  0  0  0
 11 31  1  0  0  0  0
 12 15  2  0  0  0  0
 12 16  1  0  0  0  0
 13 17  2  0  0  0  0
 13 18  1  0  0  0  0
 14 32  1  0  0  0  0
 14 33  1  0  0  0  0
 14 34  1  0  0  0  0
 15 19  1  0  0  0  0
 15 35  1  0  0  0  0
 16 20  2  0  0  0  0
 16 36  1  0  0  0  0
 17 21  1  0  0  0  0
 17 37  1  0  0  0  0
 18 22  2  0  0  0  0
 18 38  1  0  0  0  0
 19 23  2  0  0  0  0
 19 39  1  0  0  0  0
 20 23  1  0  0  0  0
 20 40  1  0  0  0  0
 21 24  2  0  0  0  0
 21 41  1  0  0  0  0
 22 24  1  0  0  0  0
 22 42  1  0  0  0  0
 24 43  1  0  0  0  0
M  END
