DB03793
 OpenBabel07062211533D

 15 15  0  0  0  0  0  0  0  0999 V2000
    2.7400    0.7587   -0.0007 O   0  0  0  0  0  0  0  0  0  0  0  0
    2.5969   -1.5098    0.0009 O   0  0  0  0  0  0  0  0  0  0  0  0
    0.6002   -0.1917    0.0001 C   0  0  0  0  0  0  0  0  0  0  0  0
   -0.2690   -1.2827   -0.0001 C   0  0  0  0  0  0  0  0  0  0  0  0
    0.0898    1.1066    0.0002 C   0  0  0  0  0  0  0  0  0  0  0  0
   -1.6485   -1.0758   -0.0002 C   0  0  0  0  0  0  0  0  0  0  0  0
   -1.2897    1.3135    0.0001 C   0  0  0  0  0  0  0  0  0  0  0  0
   -2.1587    0.2224   -0.0001 C   0  0  0  0  0  0  0  0  0  0  0  0
    2.0382   -0.4078    0.0005 C   0  0  0  0  0  0  0  0  0  0  0  0
    0.1084   -2.3021   -0.0000 H   0  0  0  0  0  0  0  0  0  0  0  0
    0.7299    1.9843    0.0004 H   0  0  0  0  0  0  0  0  0  0  0  0
   -2.3254   -1.9251   -0.0003 H   0  0  0  0  0  0  0  0  0  0  0  0
   -1.6878    2.3241    0.0002 H   0  0  0  0  0  0  0  0  0  0  0  0
   -3.2327    0.3837   -0.0002 H   0  0  0  0  0  0  0  0  0  0  0  0
    3.7084    0.6019   -0.0009 H   0  0  0  0  0  0  0  0  0  0  0  0
  1  9  1  0  0  0  0
  1 15  1  0  0  0  0
  2  9  2  0  0  0  0
  3  4  2  0  0  0  0
  3  5  1  0  0  0  0
  3  9  1  0  0  0  0
  4  6  1  0  0  0  0
  4 10  1  0  0  0  0
  5  7  2  0  0  0  0
  5 11  1  0  0  0  0
  6  8  2  0  0  0  0
  6 12  1  0  0  0  0
  7  8  1  0  0  0  0
  7 13  1  0  0  0  0
  8 14  1  0  0  0  0
M  END
