DB03255
 OpenBabel07062211533D

 13 13  0  0  0  0  0  0  0  0999 V2000
   -2.3999    0.7035    0.0003 O   0  0  0  0  0  0  0  0  0  0  0  0
   -1.0834    0.3579   -0.0004 C   0  0  0  0  0  0  0  0  0  0  0  0
   -0.7156   -0.9876   -0.0003 C   0  0  0  0  0  0  0  0  0  0  0  0
   -0.1022    1.3492   -0.0002 C   0  0  0  0  0  0  0  0  0  0  0  0
    0.6336   -1.3418   -0.0000 C   0  0  0  0  0  0  0  0  0  0  0  0
    1.2470    0.9950   -0.0001 C   0  0  0  0  0  0  0  0  0  0  0  0
    1.6149   -0.3505    0.0001 C   0  0  0  0  0  0  0  0  0  0  0  0
   -1.4703   -1.7694   -0.0003 H   0  0  0  0  0  0  0  0  0  0  0  0
   -0.3825    2.3990   -0.0001 H   0  0  0  0  0  0  0  0  0  0  0  0
    0.9202   -2.3893    0.0002 H   0  0  0  0  0  0  0  0  0  0  0  0
    2.0111    1.7669    0.0001 H   0  0  0  0  0  0  0  0  0  0  0  0
    2.6654   -0.6262    0.0003 H   0  0  0  0  0  0  0  0  0  0  0  0
   -2.9382   -0.1065    0.0004 H   0  0  0  0  0  0  0  0  0  0  0  0
  1  2  1  0  0  0  0
  1 13  1  0  0  0  0
  2  3  2  0  0  0  0
  2  4  1  0  0  0  0
  3  5  1  0  0  0  0
  3  8  1  0  0  0  0
  4  6  2  0  0  0  0
  4  9  1  0  0  0  0
  5  7  2  0  0  0  0
  5 10  1  0  0  0  0
  6  7  1  0  0  0  0
  6 11  1  0  0  0  0
  7 12  1  0  0  0  0
M  END
