DB03175
 OpenBabel07062211533D

 12 11  0  0  0  0  0  0  0  0999 V2000
   -2.2136   -0.0671    0.2864 O   0  0  0  0  0  0  0  0  0  0  0  0
    0.1334   -0.5144    0.1433 C   0  0  0  0  0  0  0  0  0  0  0  0
   -0.9531    0.5462    0.0551 C   0  0  0  0  0  0  0  0  0  0  0  0
    1.5156    0.0728   -0.0795 C   0  0  0  0  0  0  0  0  0  0  0  0
    0.0909   -1.0046    1.1233 H   0  0  0  0  0  0  0  0  0  0  0  0
   -0.0570   -1.3021   -0.5956 H   0  0  0  0  0  0  0  0  0  0  0  0
   -0.8079    1.3217    0.8134 H   0  0  0  0  0  0  0  0  0  0  0  0
   -0.9712    1.0236   -0.9298 H   0  0  0  0  0  0  0  0  0  0  0  0
    1.7437    0.8348    0.6725 H   0  0  0  0  0  0  0  0  0  0  0  0
    2.2765   -0.7108   -0.0108 H   0  0  0  0  0  0  0  0  0  0  0  0
    1.5907    0.5336   -1.0697 H   0  0  0  0  0  0  0  0  0  0  0  0
   -2.3480   -0.7337   -0.4087 H   0  0  0  0  0  0  0  0  0  0  0  0
  1  3  1  0  0  0  0
  1 12  1  0  0  0  0
  2  3  1  0  0  0  0
  2  4  1  0  0  0  0
  2  5  1  0  0  0  0
  2  6  1  0  0  0  0
  3  7  1  0  0  0  0
  3  8  1  0  0  0  0
  4  9  1  0  0  0  0
  4 10  1  0  0  0  0
  4 11  1  0  0  0  0
M  END
