DB03619
 OpenBabel07062211533D

 68 71  0  0  1  0  0  0  0  0999 V2000
   -0.4325   -1.7149   -1.2629 O   0  0  0  0  0  0  0  0  0  0  0  0
    5.5042   -1.1335   -2.6046 O   0  0  0  0  0  0  0  0  0  0  0  0
   -7.4985   -0.9941    1.0904 O   0  0  0  0  0  0  0  0  0  0  0  0
   -6.5377    1.0590    0.9552 O   0  0  0  0  0  0  0  0  0  0  0  0
   -1.2065    0.0832    0.1967 C   0  0  1  0  0  0  0  0  0  0  0  0
   -0.2367    1.1090   -0.4370 C   0  0  2  0  0  0  0  0  0  0  0  0
    1.1160    1.1776    0.2833 C   0  0  1  0  0  0  0  0  0  0  0  0
    1.7867   -0.2338    0.2394 C   0  0  1  0  0  0  0  0  0  0  0  0
    3.2069   -0.2323    0.9229 C   0  0  2  0  0  0  0  0  0  0  0  0
   -2.4413    0.3324   -0.7098 C   0  0  2  0  0  0  0  0  0  0  0  0
   -0.5678   -1.3176    0.1021 C   0  0  2  0  0  0  0  0  0  0  0  0
    0.8281   -1.3423    0.7619 C   0  0  0  0  0  0  0  0  0  0  0  0
    4.0974    0.8788    0.2708 C   0  0  2  0  0  0  0  0  0  0  0  0
   -1.0752    2.3807   -0.5469 C   0  0  0  0  0  0  0  0  0  0  0  0
    2.0240    2.2463   -0.3394 C   0  0  0  0  0  0  0  0  0  0  0  0
   -2.4983    1.8721   -0.8396 C   0  0  0  0  0  0  0  0  0  0  0  0
    3.4154    2.2567    0.2861 C   0  0  0  0  0  0  0  0  0  0  0  0
    3.9389   -1.5985    0.7777 C   0  0  0  0  0  0  0  0  0  0  0  0
   -1.5460    0.3836    1.6817 C   0  0  0  0  0  0  0  0  0  0  0  0
   -3.7572   -0.2727   -0.2423 C   0  0  1  0  0  0  0  0  0  0  0  0
    4.5421    0.5207   -1.1633 C   0  0  0  0  0  0  0  0  0  0  0  0
    3.0915    0.0319    2.4469 C   0  0  0  0  0  0  0  0  0  0  0  0
    4.3441   -1.9359   -0.6514 C   0  0  0  0  0  0  0  0  0  0  0  0
    5.2245   -0.8406   -1.2396 C   0  0  1  0  0  0  0  0  0  0  0  0
   -4.8901    0.0983   -1.2212 C   0  0  0  0  0  0  0  0  0  0  0  0
   -3.6101   -1.7895   -0.0817 C   0  0  0  0  0  0  0  0  0  0  0  0
   -6.2401   -0.5287   -0.8674 C   0  0  0  0  0  0  0  0  0  0  0  0
   -6.7543   -0.0422    0.4689 C   0  0  0  0  0  0  0  0  0  0  0  0
   -0.0238    0.8018   -1.4741 H   0  0  0  0  0  0  0  0  0  0  0  0
    0.9449    1.4704    1.3240 H   0  0  0  0  0  0  0  0  0  0  0  0
    1.9398   -0.4634   -0.8238 H   0  0  0  0  0  0  0  0  0  0  0  0
   -2.2273   -0.0580   -1.7161 H   0  0  0  0  0  0  0  0  0  0  0  0
   -1.1529   -2.0870    0.6031 H   0  0  0  0  0  0  0  0  0  0  0  0
    1.2753   -2.3221    0.5617 H   0  0  0  0  0  0  0  0  0  0  0  0
    0.7136   -1.2618    1.8470 H   0  0  0  0  0  0  0  0  0  0  0  0
    5.0181    0.9711    0.8655 H   0  0  0  0  0  0  0  0  0  0  0  0
   -0.7171    3.0380   -1.3459 H   0  0  0  0  0  0  0  0  0  0  0  0
   -1.0589    2.9551    0.3860 H   0  0  0  0  0  0  0  0  0  0  0  0
    1.5767    3.2388   -0.2066 H   0  0  0  0  0  0  0  0  0  0  0  0
    2.1035    2.0890   -1.4215 H   0  0  0  0  0  0  0  0  0  0  0  0
   -3.2005    2.3250   -0.1303 H   0  0  0  0  0  0  0  0  0  0  0  0
   -2.8127    2.1644   -1.8478 H   0  0  0  0  0  0  0  0  0  0  0  0
    4.0409    2.9895   -0.2384 H   0  0  0  0  0  0  0  0  0  0  0  0
    3.3390    2.6160    1.3194 H   0  0  0  0  0  0  0  0  0  0  0  0
    3.3364   -2.4157    1.1885 H   0  0  0  0  0  0  0  0  0  0  0  0
    4.8536   -1.5797    1.3875 H   0  0  0  0  0  0  0  0  0  0  0  0
   -2.0701    1.3360    1.8082 H   0  0  0  0  0  0  0  0  0  0  0  0
   -2.1848   -0.3942    2.1117 H   0  0  0  0  0  0  0  0  0  0  0  0
   -0.6570    0.4316    2.3158 H   0  0  0  0  0  0  0  0  0  0  0  0
   -4.0247    0.1399    0.7372 H   0  0  0  0  0  0  0  0  0  0  0  0
    3.6973    0.5371   -1.8618 H   0  0  0  0  0  0  0  0  0  0  0  0
    5.2342    1.2858   -1.5393 H   0  0  0  0  0  0  0  0  0  0  0  0
    2.5472    0.9494    2.6823 H   0  0  0  0  0  0  0  0  0  0  0  0
    2.5854   -0.7924    2.9603 H   0  0  0  0  0  0  0  0  0  0  0  0
    4.0849    0.1254    2.9016 H   0  0  0  0  0  0  0  0  0  0  0  0
    4.8884   -2.8883   -0.6660 H   0  0  0  0  0  0  0  0  0  0  0  0
    3.4618   -2.0977   -1.2819 H   0  0  0  0  0  0  0  0  0  0  0  0
    6.1810   -0.7998   -0.7051 H   0  0  0  0  0  0  0  0  0  0  0  0
   -0.0388   -2.6037   -1.2741 H   0  0  0  0  0  0  0  0  0  0  0  0
   -5.0126    1.1869   -1.2630 H   0  0  0  0  0  0  0  0  0  0  0  0
   -4.6189   -0.2258   -2.2340 H   0  0  0  0  0  0  0  0  0  0  0  0
   -3.1167   -2.2501   -0.9427 H   0  0  0  0  0  0  0  0  0  0  0  0
   -3.0814   -2.0408    0.8377 H   0  0  0  0  0  0  0  0  0  0  0  0
   -4.5696   -2.2947    0.0442 H   0  0  0  0  0  0  0  0  0  0  0  0
    5.9428   -2.0009   -2.6340 H   0  0  0  0  0  0  0  0  0  0  0  0
   -6.9805   -0.2221   -1.6164 H   0  0  0  0  0  0  0  0  0  0  0  0
   -6.2121   -1.6201   -0.8963 H   0  0  0  0  0  0  0  0  0  0  0  0
   -7.8319   -0.6866    1.9603 H   0  0  0  0  0  0  0  0  0  0  0  0
  1 11  1  0  0  0  0
  1 59  1  0  0  0  0
  2 24  1  0  0  0  0
  2 65  1  0  0  0  0
  3 28  1  0  0  0  0
  3 68  1  0  0  0  0
  4 28  2  0  0  0  0
  5  6  1  6  0  0  0
  5 19  1  0  0  0  0
  6  7  1  1  0  0  0
  6 14  1  0  0  0  0
  6 29  1  0  0  0  0
  7  8  1  6  0  0  0
  7 15  1  0  0  0  0
  7 30  1  0  0  0  0
  8  9  1  1  0  0  0
  8 12  1  0  0  0  0
  8 31  1  0  0  0  0
  9 13  1  6  0  0  0
  9 18  1  0  0  0  0
  9 22  1  0  0  0  0
 10  5  1  1  0  0  0
 10 16  1  0  0  0  0
 10 20  1  0  0  0  0
 10 32  1  0  0  0  0
 11  5  1  1  0  0  0
 11 12  1  0  0  0  0
 11 33  1  0  0  0  0
 12 34  1  0  0  0  0
 12 35  1  0  0  0  0
 13 17  1  0  0  0  0
 13 21  1  0  0  0  0
 13 36  1  1  0  0  0
 14 16  1  0  0  0  0
 14 37  1  0  0  0  0
 14 38  1  0  0  0  0
 15 17  1  0  0  0  0
 15 39  1  0  0  0  0
 15 40  1  0  0  0  0
 16 41  1  0  0  0  0
 16 42  1  0  0  0  0
 17 43  1  0  0  0  0
 17 44  1  0  0  0  0
 18 23  1  0  0  0  0
 18 45  1  0  0  0  0
 18 46  1  0  0  0  0
 19 47  1  0  0  0  0
 19 48  1  0  0  0  0
 19 49  1  0  0  0  0
 20 25  1  0  0  0  0
 20 26  1  0  0  0  0
 20 50  1  1  0  0  0
 21 24  1  0  0  0  0
 21 51  1  0  0  0  0
 21 52  1  0  0  0  0
 22 53  1  0  0  0  0
 22 54  1  0  0  0  0
 22 55  1  0  0  0  0
 23 24  1  0  0  0  0
 23 56  1  0  0  0  0
 23 57  1  0  0  0  0
 24 58  1  1  0  0  0
 25 27  1  0  0  0  0
 25 60  1  0  0  0  0
 25 61  1  0  0  0  0
 26 62  1  0  0  0  0
 26 63  1  0  0  0  0
 26 64  1  0  0  0  0
 27 28  1  0  0  0  0
 27 66  1  0  0  0  0
 27 67  1  0  0  0  0
M  END
