DB03017
 OpenBabel07062211533D

 38 37  0  0  0  0  0  0  0  0999 V2000
    8.0534    0.4217   -0.0380 O   0  0  0  0  0  0  0  0  0  0  0  0
    6.9284   -1.5507   -0.1388 O   0  0  0  0  0  0  0  0  0  0  0  0
   -0.6816   -0.4604    0.0435 C   0  0  0  0  0  0  0  0  0  0  0  0
    0.5690    0.4214    0.0313 C   0  0  0  0  0  0  0  0  0  0  0  0
   -1.9572    0.3867    0.0362 C   0  0  0  0  0  0  0  0  0  0  0  0
    1.8763   -0.3762    0.0150 C   0  0  0  0  0  0  0  0  0  0  0  0
   -3.2072   -0.4952    0.0103 C   0  0  0  0  0  0  0  0  0  0  0  0
    3.1273    0.5060    0.0278 C   0  0  0  0  0  0  0  0  0  0  0  0
   -4.5148    0.3015   -0.0293 C   0  0  0  0  0  0  0  0  0  0  0  0
    4.4029   -0.3433    0.0224 C   0  0  0  0  0  0  0  0  0  0  0  0
   -5.8005   -0.5272    0.0282 C   0  0  0  0  0  0  0  0  0  0  0  0
    5.6700    0.5067    0.0007 C   0  0  0  0  0  0  0  0  0  0  0  0
   -7.0673    0.3084   -0.0674 C   0  0  0  0  0  0  0  0  0  0  0  0
    6.9240   -0.3289   -0.0645 C   0  0  0  0  0  0  0  0  0  0  0  0
   -0.6694   -1.1032    0.9318 H   0  0  0  0  0  0  0  0  0  0  0  0
   -0.6710   -1.1189   -0.8334 H   0  0  0  0  0  0  0  0  0  0  0  0
    0.5417    1.0777   -0.8475 H   0  0  0  0  0  0  0  0  0  0  0  0
    0.5586    1.0736    0.9135 H   0  0  0  0  0  0  0  0  0  0  0  0
   -1.9578    1.0446   -0.8412 H   0  0  0  0  0  0  0  0  0  0  0  0
   -1.9792    1.0302    0.9239 H   0  0  0  0  0  0  0  0  0  0  0  0
    1.8931   -1.0165   -0.8758 H   0  0  0  0  0  0  0  0  0  0  0  0
    1.8973   -1.0439    0.8852 H   0  0  0  0  0  0  0  0  0  0  0  0
   -3.1700   -1.1583   -0.8628 H   0  0  0  0  0  0  0  0  0  0  0  0
   -3.2104   -1.1406    0.8974 H   0  0  0  0  0  0  0  0  0  0  0  0
    3.1171    1.1477    0.9169 H   0  0  0  0  0  0  0  0  0  0  0  0
    3.1190    1.1649   -0.8486 H   0  0  0  0  0  0  0  0  0  0  0  0
   -4.5209    1.0097    0.8091 H   0  0  0  0  0  0  0  0  0  0  0  0
   -4.5258    0.9075   -0.9442 H   0  0  0  0  0  0  0  0  0  0  0  0
    4.3924   -1.0050   -0.8531 H   0  0  0  0  0  0  0  0  0  0  0  0
    4.4141   -0.9951    0.9052 H   0  0  0  0  0  0  0  0  0  0  0  0
   -5.7955   -1.2567   -0.7902 H   0  0  0  0  0  0  0  0  0  0  0  0
   -5.8197   -1.0993    0.9633 H   0  0  0  0  0  0  0  0  0  0  0  0
    5.6596    1.1653   -0.8748 H   0  0  0  0  0  0  0  0  0  0  0  0
    5.7159    1.1214    0.9064 H   0  0  0  0  0  0  0  0  0  0  0  0
   -7.1234    1.0272    0.7561 H   0  0  0  0  0  0  0  0  0  0  0  0
   -7.0986    0.8632   -1.0105 H   0  0  0  0  0  0  0  0  0  0  0  0
   -7.9517   -0.3346   -0.0204 H   0  0  0  0  0  0  0  0  0  0  0  0
    8.8620   -0.1317   -0.0836 H   0  0  0  0  0  0  0  0  0  0  0  0
  1 14  1  0  0  0  0
  1 38  1  0  0  0  0
  2 14  2  0  0  0  0
  3  4  1  0  0  0  0
  3  5  1  0  0  0  0
  3 15  1  0  0  0  0
  3 16  1  0  0  0  0
  4  6  1  0  0  0  0
  4 17  1  0  0  0  0
  4 18  1  0  0  0  0
  5  7  1  0  0  0  0
  5 19  1  0  0  0  0
  5 20  1  0  0  0  0
  6  8  1  0  0  0  0
  6 21  1  0  0  0  0
  6 22  1  0  0  0  0
  7  9  1  0  0  0  0
  7 23  1  0  0  0  0
  7 24  1  0  0  0  0
  8 10  1  0  0  0  0
  8 25  1  0  0  0  0
  8 26  1  0  0  0  0
  9 11  1  0  0  0  0
  9 27  1  0  0  0  0
  9 28  1  0  0  0  0
 10 12  1  0  0  0  0
 10 29  1  0  0  0  0
 10 30  1  0  0  0  0
 11 13  1  0  0  0  0
 11 31  1  0  0  0  0
 11 32  1  0  0  0  0
 12 14  1  0  0  0  0
 12 33  1  0  0  0  0
 12 34  1  0  0  0  0
 13 35  1  0  0  0  0
 13 36  1  0  0  0  0
 13 37  1  0  0  0  0
M  END
