DB03615
 OpenBabel07062211533D

 65 67  0  0  1  0  0  0  0  0999 V2000
    1.2894   -0.7212   -0.1432 O   0  0  0  0  0  0  0  0  0  0  0  0
   -2.3621   -0.8352    0.0135 O   0  0  0  0  0  0  0  0  0  0  0  0
    2.1677    1.4382    0.2630 O   0  0  0  0  0  0  0  0  0  0  0  0
    0.1447   -2.7979   -1.7844 O   0  0  0  0  0  0  0  0  0  0  0  0
   -2.2879    1.3800   -0.8149 O   0  0  0  0  0  0  0  0  0  0  0  0
    4.7010    0.0671   -2.7016 O   0  0  0  0  0  0  0  0  0  0  0  0
   -5.3775   -0.4093   -0.5431 O   0  0  0  0  0  0  0  0  0  0  0  0
    5.6404    0.2330    0.0105 O   0  0  0  0  0  0  0  0  0  0  0  0
   -5.0315    1.9003   -1.9488 O   0  0  0  0  0  0  0  0  0  0  0  0
   -1.4923    3.5441    0.7875 O   0  0  0  0  0  0  0  0  0  0  0  0
   -0.9980   -1.5385    2.6190 N   0  0  0  0  0  0  0  0  0  0  0  0
   -2.2023   -3.7249    0.8920 N   0  0  0  0  0  0  0  0  0  0  0  0
    1.8447   -0.4338   -2.9292 N   0  0  0  0  0  0  0  0  0  0  0  0
    2.9810    2.0663    2.8779 N   0  0  0  0  0  0  0  0  0  0  0  0
    0.0160   -0.7520    0.5057 C   0  0  1  0  0  0  0  0  0  0  0  0
   -1.0724   -1.1281   -0.5152 C   0  0  1  0  0  0  0  0  0  0  0  0
    0.1181   -1.7278    1.6923 C   0  0  2  0  0  0  0  0  0  0  0  0
   -1.0032   -2.6012   -0.9552 C   0  0  2  0  0  0  0  0  0  0  0  0
   -0.9111   -3.5956    0.2165 C   0  0  1  0  0  0  0  0  0  0  0  0
    0.1938   -3.1884    1.2092 C   0  0  0  0  0  0  0  0  0  0  0  0
    1.5564    0.5670   -0.6935 C   0  0  1  0  0  0  0  0  0  0  0  0
   -3.0257    0.1475   -0.7676 C   0  0  2  0  0  0  0  0  0  0  0  0
    2.4482    0.4555   -1.9361 C   0  0  1  0  0  0  0  0  0  0  0  0
    3.8507   -0.0333   -1.5579 C   0  0  2  0  0  0  0  0  0  0  0  0
   -4.3623    0.4828   -0.1287 C   0  0  1  0  0  0  0  0  0  0  0  0
    4.4298    0.8380   -0.4376 C   0  0  1  0  0  0  0  0  0  0  0  0
    3.4407    0.9747    0.7262 C   0  0  1  0  0  0  0  0  0  0  0  0
   -4.5895    1.9045   -0.5921 C   0  0  1  0  0  0  0  0  0  0  0  0
   -3.1803    2.4806   -0.5335 C   0  0  1  0  0  0  0  0  0  0  0  0
    3.9247    1.9731    1.7743 C   0  0  0  0  0  0  0  0  0  0  0  0
   -2.8191    3.0453    0.8339 C   0  0  0  0  0  0  0  0  0  0  0  0
   -0.2014    0.2421    0.9233 H   0  0  0  0  0  0  0  0  0  0  0  0
   -0.8909   -0.5463   -1.4287 H   0  0  0  0  0  0  0  0  0  0  0  0
    1.0438   -1.5171    2.2430 H   0  0  0  0  0  0  0  0  0  0  0  0
   -1.8784   -2.8426   -1.5705 H   0  0  0  0  0  0  0  0  0  0  0  0
   -0.6493   -4.5845   -0.1802 H   0  0  0  0  0  0  0  0  0  0  0  0
    1.1715   -3.3470    0.7355 H   0  0  0  0  0  0  0  0  0  0  0  0
    0.1878   -3.8673    2.0733 H   0  0  0  0  0  0  0  0  0  0  0  0
    0.6238    1.0557   -1.0026 H   0  0  0  0  0  0  0  0  0  0  0  0
   -3.1588   -0.2292   -1.7901 H   0  0  0  0  0  0  0  0  0  0  0  0
    2.5457    1.4482   -2.3947 H   0  0  0  0  0  0  0  0  0  0  0  0
    3.8455   -1.0861   -1.2477 H   0  0  0  0  0  0  0  0  0  0  0  0
   -4.2942    0.4394    0.9649 H   0  0  0  0  0  0  0  0  0  0  0  0
    4.6830    1.8278   -0.8383 H   0  0  0  0  0  0  0  0  0  0  0  0
    3.3145    0.0006    1.2189 H   0  0  0  0  0  0  0  0  0  0  0  0
   -5.3310    2.4446    0.0032 H   0  0  0  0  0  0  0  0  0  0  0  0
   -3.0066    3.2333   -1.3107 H   0  0  0  0  0  0  0  0  0  0  0  0
   -0.9845   -0.5872    2.9844 H   0  0  0  0  0  0  0  0  0  0  0  0
   -0.8873   -2.1574    3.4211 H   0  0  0  0  0  0  0  0  0  0  0  0
   -2.4846   -2.8242    1.2768 H   0  0  0  0  0  0  0  0  0  0  0  0
   -2.1116   -4.3548    1.6882 H   0  0  0  0  0  0  0  0  0  0  0  0
    0.9380   -2.6124   -1.2560 H   0  0  0  0  0  0  0  0  0  0  0  0
    4.9031    1.6767    2.1660 H   0  0  0  0  0  0  0  0  0  0  0  0
    4.0283    2.9682    1.3263 H   0  0  0  0  0  0  0  0  0  0  0  0
    1.8063   -1.3840   -2.5670 H   0  0  0  0  0  0  0  0  0  0  0  0
    0.8805   -0.1536   -3.1029 H   0  0  0  0  0  0  0  0  0  0  0  0
   -2.8434    2.2744    1.6097 H   0  0  0  0  0  0  0  0  0  0  0  0
   -3.4912    3.8589    1.1238 H   0  0  0  0  0  0  0  0  0  0  0  0
    4.3032   -0.4725   -3.4061 H   0  0  0  0  0  0  0  0  0  0  0  0
   -5.0975   -1.3063   -0.2927 H   0  0  0  0  0  0  0  0  0  0  0  0
    6.2312    0.1579   -0.7584 H   0  0  0  0  0  0  0  0  0  0  0  0
   -5.1156    2.8275   -2.2293 H   0  0  0  0  0  0  0  0  0  0  0  0
    3.2859    2.7912    3.5259 H   0  0  0  0  0  0  0  0  0  0  0  0
    2.0699    2.3590    2.5272 H   0  0  0  0  0  0  0  0  0  0  0  0
   -1.4677    4.2562    0.1257 H   0  0  0  0  0  0  0  0  0  0  0  0
  1 15  1  0  0  0  0
  1 21  1  0  0  0  0
  2 16  1  0  0  0  0
  2 22  1  0  0  0  0
  3 21  1  0  0  0  0
  3 27  1  0  0  0  0
  4 18  1  0  0  0  0
  4 52  1  0  0  0  0
  5 22  1  0  0  0  0
  5 29  1  0  0  0  0
  6 24  1  0  0  0  0
  6 59  1  0  0  0  0
  7 25  1  0  0  0  0
  7 60  1  0  0  0  0
  8 26  1  0  0  0  0
  8 61  1  0  0  0  0
  9 28  1  0  0  0  0
  9 62  1  0  0  0  0
 10 31  1  0  0  0  0
 10 65  1  0  0  0  0
 11 17  1  0  0  0  0
 11 48  1  0  0  0  0
 11 49  1  0  0  0  0
 12 19  1  0  0  0  0
 12 50  1  0  0  0  0
 12 51  1  0  0  0  0
 13 23  1  0  0  0  0
 13 55  1  0  0  0  0
 13 56  1  0  0  0  0
 14 30  1  0  0  0  0
 14 63  1  0  0  0  0
 14 64  1  0  0  0  0
 15 16  1  6  0  0  0
 15 32  1  0  0  0  0
 16 18  1  6  0  0  0
 16 33  1  0  0  0  0
 17 15  1  6  0  0  0
 17 20  1  0  0  0  0
 17 34  1  0  0  0  0
 18 19  1  1  0  0  0
 18 35  1  0  0  0  0
 19 20  1  0  0  0  0
 19 36  1  6  0  0  0
 20 37  1  0  0  0  0
 20 38  1  0  0  0  0
 21 23  1  6  0  0  0
 21 39  1  0  0  0  0
 22 25  1  1  0  0  0
 22 40  1  0  0  0  0
 23 24  1  1  0  0  0
 23 41  1  0  0  0  0
 24 26  1  1  0  0  0
 24 42  1  0  0  0  0
 25 28  1  6  0  0  0
 25 43  1  0  0  0  0
 26 27  1  1  0  0  0
 26 44  1  0  0  0  0
 27 30  1  0  0  0  0
 27 45  1  1  0  0  0
 28 29  1  1  0  0  0
 28 46  1  0  0  0  0
 29 31  1  0  0  0  0
 29 47  1  6  0  0  0
 30 53  1  0  0  0  0
 30 54  1  0  0  0  0
 31 57  1  0  0  0  0
 31 58  1  0  0  0  0
M  END
