DB04820
 OpenBabel07062211533D

 40 41  0  0  0  0  0  0  0  0999 V2000
   -1.5332    0.4315   -1.6001 O   0  0  0  0  0  0  0  0  0  0  0  0
    3.5685   -0.4865    2.1002 O   0  0  0  0  0  0  0  0  0  0  0  0
   -2.8756    1.5589   -0.0793 N   0  0  0  0  0  0  0  0  0  0  0  0
    1.8971    1.2601    0.7547 N   0  0  0  0  0  0  0  0  0  0  0  0
    3.1157    0.8352    0.2476 N   0  0  0  0  0  0  0  0  0  0  0  0
    7.6007   -1.1670   -0.7167 N   0  0  0  0  0  0  0  0  0  0  0  0
   -0.5128    1.4320    0.3550 C   0  0  0  0  0  0  0  0  0  0  0  0
    0.8212    0.9047   -0.1624 C   0  0  0  0  0  0  0  0  0  0  0  0
   -4.1211    1.3468   -0.7771 C   0  0  0  0  0  0  0  0  0  0  0  0
   -1.6690    1.0732   -0.5618 C   0  0  0  0  0  0  0  0  0  0  0  0
   -4.8001    0.0802   -0.3424 C   0  0  0  0  0  0  0  0  0  0  0  0
   -4.5239   -1.1101   -1.0048 C   0  0  0  0  0  0  0  0  0  0  0  0
   -5.6977    0.1105    0.7185 C   0  0  0  0  0  0  0  0  0  0  0  0
   -5.1543   -2.2870   -0.6009 C   0  0  0  0  0  0  0  0  0  0  0  0
   -6.3282   -1.0665    1.1224 C   0  0  0  0  0  0  0  0  0  0  0  0
    3.8799   -0.0406    0.9985 C   0  0  0  0  0  0  0  0  0  0  0  0
   -6.0564   -2.2652    0.4626 C   0  0  0  0  0  0  0  0  0  0  0  0
    5.1813   -0.4344    0.3986 C   0  0  0  0  0  0  0  0  0  0  0  0
    6.2123   -0.8045    1.2290 C   0  0  0  0  0  0  0  0  0  0  0  0
    5.3162   -0.4174   -0.9691 C   0  0  0  0  0  0  0  0  0  0  0  0
    7.4046   -1.1630    0.6209 C   0  0  0  0  0  0  0  0  0  0  0  0
    6.5487   -0.7931   -1.4789 C   0  0  0  0  0  0  0  0  0  0  0  0
   -0.4790    2.5247    0.4478 H   0  0  0  0  0  0  0  0  0  0  0  0
   -0.7245    1.0158    1.3480 H   0  0  0  0  0  0  0  0  0  0  0  0
    1.0149    1.3201   -1.1600 H   0  0  0  0  0  0  0  0  0  0  0  0
    0.7666   -0.1862   -0.2688 H   0  0  0  0  0  0  0  0  0  0  0  0
   -3.9398    1.3321   -1.8586 H   0  0  0  0  0  0  0  0  0  0  0  0
   -4.7609    2.2140   -0.5772 H   0  0  0  0  0  0  0  0  0  0  0  0
   -2.8973    2.0659    0.8009 H   0  0  0  0  0  0  0  0  0  0  0  0
    1.9510    2.2742    0.8447 H   0  0  0  0  0  0  0  0  0  0  0  0
   -3.8270   -1.1407   -1.8374 H   0  0  0  0  0  0  0  0  0  0  0  0
   -5.9154    1.0380    1.2407 H   0  0  0  0  0  0  0  0  0  0  0  0
    3.4269    1.2526   -0.6234 H   0  0  0  0  0  0  0  0  0  0  0  0
   -4.9436   -3.2201   -1.1152 H   0  0  0  0  0  0  0  0  0  0  0  0
   -7.0303   -1.0499    1.9509 H   0  0  0  0  0  0  0  0  0  0  0  0
   -6.5474   -3.1815    0.7771 H   0  0  0  0  0  0  0  0  0  0  0  0
    6.1246   -0.8191    2.3091 H   0  0  0  0  0  0  0  0  0  0  0  0
    4.5204   -0.1620   -1.6579 H   0  0  0  0  0  0  0  0  0  0  0  0
    8.2618   -1.4648    1.2139 H   0  0  0  0  0  0  0  0  0  0  0  0
    6.7253   -0.8109   -2.5494 H   0  0  0  0  0  0  0  0  0  0  0  0
  1 10  2  0  0  0  0
  2 16  2  0  0  0  0
  3  9  1  0  0  0  0
  3 10  1  0  0  0  0
  3 29  1  0  0  0  0
  4  5  1  0  0  0  0
  4  8  1  0  0  0  0
  4 30  1  0  0  0  0
  5 16  1  0  0  0  0
  5 33  1  0  0  0  0
  6 21  2  0  0  0  0
  6 22  1  0  0  0  0
  7  8  1  0  0  0  0
  7 10  1  0  0  0  0
  7 23  1  0  0  0  0
  7 24  1  0  0  0  0
  8 25  1  0  0  0  0
  8 26  1  0  0  0  0
  9 11  1  0  0  0  0
  9 27  1  0  0  0  0
  9 28  1  0  0  0  0
 11 12  2  0  0  0  0
 11 13  1  0  0  0  0
 12 14  1  0  0  0  0
 12 31  1  0  0  0  0
 13 15  2  0  0  0  0
 13 32  1  0  0  0  0
 14 17  2  0  0  0  0
 14 34  1  0  0  0  0
 15 17  1  0  0  0  0
 15 35  1  0  0  0  0
 16 18  1  0  0  0  0
 17 36  1  0  0  0  0
 18 19  2  0  0  0  0
 18 20  1  0  0  0  0
 19 21  1  0  0  0  0
 19 37  1  0  0  0  0
 20 22  2  0  0  0  0
 20 38  1  0  0  0  0
 21 39  1  0  0  0  0
 22 40  1  0  0  0  0
M  END
