DB04173
 OpenBabel07062211533D

 24 24  0  0  1  0  0  0  0  0999 V2000
   -0.0516   -1.0608    0.3982 O   0  0  0  0  0  0  0  0  0  0  0  0
   -1.2526    2.1967   -0.5640 O   0  0  0  0  0  0  0  0  0  0  0  0
   -1.2094   -0.3580   -1.5195 O   0  0  0  0  0  0  0  0  0  0  0  0
    1.5659    2.1088    0.6352 O   0  0  0  0  0  0  0  0  0  0  0  0
   -2.7696   -1.8976    0.1771 O   0  0  0  0  0  0  0  0  0  0  0  0
    2.4958   -2.2599    0.3124 O   0  0  0  0  0  0  0  0  0  0  0  0
   -0.6362    1.2031    0.2305 C   0  0  1  0  0  0  0  0  0  0  0  0
   -1.1005   -0.2113   -0.1028 C   0  0  2  0  0  0  0  0  0  0  0  0
    0.8467    1.1013   -0.0520 C   0  0  2  0  0  0  0  0  0  0  0  0
    1.1612   -0.2869    0.4945 C   0  0  2  0  0  0  0  0  0  0  0  0
   -2.4220   -0.5767    0.5556 C   0  0  0  0  0  0  0  0  0  0  0  0
    2.2684   -0.9886   -0.2730 C   0  0  0  0  0  0  0  0  0  0  0  0
   -0.8069    1.4464    1.2870 H   0  0  0  0  0  0  0  0  0  0  0  0
    1.0647    1.2016   -1.1213 H   0  0  0  0  0  0  0  0  0  0  0  0
    1.4252   -0.2484    1.5587 H   0  0  0  0  0  0  0  0  0  0  0  0
   -3.2298    0.0888    0.2349 H   0  0  0  0  0  0  0  0  0  0  0  0
   -2.3464   -0.5521    1.6469 H   0  0  0  0  0  0  0  0  0  0  0  0
    3.2013   -0.4187   -0.2357 H   0  0  0  0  0  0  0  0  0  0  0  0
    1.9927   -1.1490   -1.3204 H   0  0  0  0  0  0  0  0  0  0  0  0
   -0.8150    3.0420   -0.3656 H   0  0  0  0  0  0  0  0  0  0  0  0
   -0.7234    0.3566   -1.9612 H   0  0  0  0  0  0  0  0  0  0  0  0
    2.5130    1.9345    0.5007 H   0  0  0  0  0  0  0  0  0  0  0  0
   -2.8297   -1.9188   -0.7934 H   0  0  0  0  0  0  0  0  0  0  0  0
    1.6581   -2.7530    0.2772 H   0  0  0  0  0  0  0  0  0  0  0  0
  1  8  1  0  0  0  0
  1 10  1  0  0  0  0
  2  7  1  0  0  0  0
  2 20  1  0  0  0  0
  3 21  1  0  0  0  0
  4  9  1  0  0  0  0
  4 22  1  0  0  0  0
  5 11  1  0  0  0  0
  5 23  1  0  0  0  0
  6 12  1  0  0  0  0
  6 24  1  0  0  0  0
  7  8  1  6  0  0  0
  7 13  1  0  0  0  0
  8  3  1  6  0  0  0
  8 11  1  0  0  0  0
  9  7  1  1  0  0  0
  9 14  1  0  0  0  0
 10  9  1  6  0  0  0
 10 12  1  0  0  0  0
 10 15  1  0  0  0  0
 11 16  1  0  0  0  0
 11 17  1  0  0  0  0
 12 18  1  0  0  0  0
 12 19  1  0  0  0  0
M  END
