DB04743
 OpenBabel07062211533D

 33 34  0  0  0  0  0  0  0  0999 V2000
   -3.2054    1.9618   -0.4681 S   0  0  0  0  0  0  0  0  0  0  0  0
    0.4383    0.7551    0.5511 O   0  0  0  0  0  0  0  0  0  0  0  0
   -3.4933    3.1207   -1.2922 O   0  0  0  0  0  0  0  0  0  0  0  0
   -4.2458    1.0008   -0.1589 O   0  0  0  0  0  0  0  0  0  0  0  0
   -1.2665   -4.9197    0.5475 O   0  0  0  0  0  0  0  0  0  0  0  0
    0.4788   -4.0923    1.5909 O   0  0  0  0  0  0  0  0  0  0  0  0
   -1.8106    1.1776   -1.1027 N   0  0  0  0  0  0  0  0  0  0  0  0
   -0.5310   -3.9519    0.8594 N   0  0  0  0  0  0  0  0  0  0  0  0
   -1.4773   -0.1178   -0.5983 C   0  0  0  0  0  0  0  0  0  0  0  0
   -0.3599   -0.2978    0.2169 C   0  0  0  0  0  0  0  0  0  0  0  0
   -2.2819   -1.2080   -0.9297 C   0  0  0  0  0  0  0  0  0  0  0  0
   -0.0469   -1.5681    0.7006 C   0  0  0  0  0  0  0  0  0  0  0  0
   -0.8512   -2.6584    0.3691 C   0  0  0  0  0  0  0  0  0  0  0  0
   -1.9688   -2.4783   -0.4461 C   0  0  0  0  0  0  0  0  0  0  0  0
   -2.5514    2.5716    1.0696 C   0  0  0  0  0  0  0  0  0  0  0  0
    1.7694    0.6957    0.1770 C   0  0  0  0  0  0  0  0  0  0  0  0
    2.0926    0.2825   -1.1034 C   0  0  0  0  0  0  0  0  0  0  0  0
    2.7440    1.0497    1.0929 C   0  0  0  0  0  0  0  0  0  0  0  0
    3.4342    0.2216   -1.4801 C   0  0  0  0  0  0  0  0  0  0  0  0
    4.0856    0.9890    0.7163 C   0  0  0  0  0  0  0  0  0  0  0  0
    4.4307    0.5748   -0.5702 C   0  0  0  0  0  0  0  0  0  0  0  0
   -0.9943    1.7878   -1.2449 H   0  0  0  0  0  0  0  0  0  0  0  0
   -3.1478   -1.0871   -1.5753 H   0  0  0  0  0  0  0  0  0  0  0  0
    0.8213   -1.6873    1.3450 H   0  0  0  0  0  0  0  0  0  0  0  0
   -2.6161   -3.3050   -0.7277 H   0  0  0  0  0  0  0  0  0  0  0  0
   -1.6846    3.2020    0.8631 H   0  0  0  0  0  0  0  0  0  0  0  0
   -3.3309    3.1645    1.5538 H   0  0  0  0  0  0  0  0  0  0  0  0
   -2.2835    1.7286    1.7083 H   0  0  0  0  0  0  0  0  0  0  0  0
    1.3356    0.0205   -1.8364 H   0  0  0  0  0  0  0  0  0  0  0  0
    2.4768    1.3717    2.0949 H   0  0  0  0  0  0  0  0  0  0  0  0
    3.7030   -0.0966   -2.4832 H   0  0  0  0  0  0  0  0  0  0  0  0
    4.8615    1.2640    1.4247 H   0  0  0  0  0  0  0  0  0  0  0  0
    5.4753    0.5284   -0.8639 H   0  0  0  0  0  0  0  0  0  0  0  0
  1  3  2  0  0  0  0
  1  4  2  0  0  0  0
  1  7  1  0  0  0  0
  1 15  1  0  0  0  0
  2 10  1  0  0  0  0
  2 16  1  0  0  0  0
  5  8  1  0  0  0  0
  6  8  2  0  0  0  0
  7  9  1  0  0  0  0
  7 22  1  0  0  0  0
  8 13  1  0  0  0  0
  9 10  2  0  0  0  0
  9 11  1  0  0  0  0
 10 12  1  0  0  0  0
 11 14  2  0  0  0  0
 11 23  1  0  0  0  0
 12 13  2  0  0  0  0
 12 24  1  0  0  0  0
 13 14  1  0  0  0  0
 14 25  1  0  0  0  0
 15 26  1  0  0  0  0
 15 27  1  0  0  0  0
 15 28  1  0  0  0  0
 16 17  2  0  0  0  0
 16 18  1  0  0  0  0
 17 19  1  0  0  0  0
 17 29  1  0  0  0  0
 18 20  2  0  0  0  0
 18 30  1  0  0  0  0
 19 21  2  0  0  0  0
 19 31  1  0  0  0  0
 20 21  1  0  0  0  0
 20 32  1  0  0  0  0
 21 33  1  0  0  0  0
M  END
