DB04880
 OpenBabel07062211533D

 29 30  0  0  0  0  0  0  0  0999 V2000
    4.8114   -0.6855    0.3756 S   0  0  0  0  0  0  0  0  0  0  0  0
   -1.6860   -2.2186   -0.3708 O   0  0  0  0  0  0  0  0  0  0  0  0
   -2.3886    3.4623    0.5604 O   0  0  0  0  0  0  0  0  0  0  0  0
   -1.4453    1.3044    0.2610 N   0  0  0  0  0  0  0  0  0  0  0  0
   -3.6689    1.5079    0.1351 N   0  0  0  0  0  0  0  0  0  0  0  0
   -1.9987    0.0730    0.0127 C   0  0  0  0  0  0  0  0  0  0  0  0
   -3.3341    0.1852   -0.0647 C   0  0  0  0  0  0  0  0  0  0  0  0
   -1.1781   -1.1167   -0.1284 C   0  0  0  0  0  0  0  0  0  0  0  0
    0.3055   -1.0099   -0.0035 C   0  0  0  0  0  0  0  0  0  0  0  0
   -2.4864    2.2641    0.3489 C   0  0  0  0  0  0  0  0  0  0  0  0
   -4.3936   -0.8214   -0.3103 C   0  0  0  0  0  0  0  0  0  0  0  0
    0.8747   -1.1628    1.2398 C   0  0  0  0  0  0  0  0  0  0  0  0
    1.0459   -0.7626   -1.1366 C   0  0  0  0  0  0  0  0  0  0  0  0
    3.0399   -0.8129    0.2266 C   0  0  0  0  0  0  0  0  0  0  0  0
    2.2612   -1.0629    1.3564 C   0  0  0  0  0  0  0  0  0  0  0  0
    2.4324   -0.6628   -1.0199 C   0  0  0  0  0  0  0  0  0  0  0  0
    5.0441    1.0006   -0.2290 C   0  0  0  0  0  0  0  0  0  0  0  0
   -0.4566    1.4954    0.3653 H   0  0  0  0  0  0  0  0  0  0  0  0
   -4.6155    1.8678    0.1283 H   0  0  0  0  0  0  0  0  0  0  0  0
   -4.0145   -1.8381   -0.4232 H   0  0  0  0  0  0  0  0  0  0  0  0
   -4.9452   -0.5734   -1.2233 H   0  0  0  0  0  0  0  0  0  0  0  0
   -5.1051   -0.8307    0.5224 H   0  0  0  0  0  0  0  0  0  0  0  0
    0.2720   -1.3576    2.1216 H   0  0  0  0  0  0  0  0  0  0  0  0
    0.5769   -0.6473   -2.1091 H   0  0  0  0  0  0  0  0  0  0  0  0
    2.7168   -1.1825    2.3364 H   0  0  0  0  0  0  0  0  0  0  0  0
    3.0184   -0.4771   -1.9164 H   0  0  0  0  0  0  0  0  0  0  0  0
    6.0913    1.2861   -0.0953 H   0  0  0  0  0  0  0  0  0  0  0  0
    4.4215    1.7021    0.3332 H   0  0  0  0  0  0  0  0  0  0  0  0
    4.8046    1.0740   -1.2930 H   0  0  0  0  0  0  0  0  0  0  0  0
  1 14  1  0  0  0  0
  1 17  1  0  0  0  0
  2  8  2  0  0  0  0
  3 10  2  0  0  0  0
  4  6  2  0  0  0  0
  4 10  1  0  0  0  0
  4 18  1  0  0  0  0
  5  7  2  0  0  0  0
  5 10  1  0  0  0  0
  5 19  1  0  0  0  0
  6  7  1  0  0  0  0
  6  8  1  0  0  0  0
  7 11  1  0  0  0  0
  8  9  1  0  0  0  0
  9 12  2  0  0  0  0
  9 13  1  0  0  0  0
 11 20  1  0  0  0  0
 11 21  1  0  0  0  0
 11 22  1  0  0  0  0
 12 15  1  0  0  0  0
 12 23  1  0  0  0  0
 13 16  2  0  0  0  0
 13 24  1  0  0  0  0
 14 15  2  0  0  0  0
 14 16  1  0  0  0  0
 15 25  1  0  0  0  0
 16 26  1  0  0  0  0
 17 27  1  0  0  0  0
 17 28  1  0  0  0  0
 17 29  1  0  0  0  0
M  END
