DB04572
 OpenBabel07062211533D

 23 25  0  0  0  0  0  0  0  0999 V2000
   -0.2857    0.8766    2.3196 S   0  0  0  0  0  0  0  0  0  0  0  0
   -0.0679    0.0281    0.5664 P   0  0  0  0  0  0  0  0  0  0  0  0
   -1.3939    0.1405   -0.4391 N   0  0  0  0  0  0  0  0  0  0  0  0
    0.2487   -1.6090    0.6122 N   0  0  0  0  0  0  0  0  0  0  0  0
    1.1771    0.6392   -0.3607 N   0  0  0  0  0  0  0  0  0  0  0  0
   -2.5859   -0.5720   -0.0092 C   0  0  0  0  0  0  0  0  0  0  0  0
   -2.5129    0.9256    0.0561 C   0  0  0  0  0  0  0  0  0  0  0  0
    0.5519   -2.2386   -0.6626 C   0  0  0  0  0  0  0  0  0  0  0  0
    1.6245   -2.0062    0.3612 C   0  0  0  0  0  0  0  0  0  0  0  0
    1.0253    2.0128   -0.8112 C   0  0  0  0  0  0  0  0  0  0  0  0
    2.0076    1.6548    0.2654 C   0  0  0  0  0  0  0  0  0  0  0  0
   -2.5502   -1.1273    0.9178 H   0  0  0  0  0  0  0  0  0  0  0  0
   -3.1766   -1.0171   -0.7982 H   0  0  0  0  0  0  0  0  0  0  0  0
   -3.0510    1.4848   -0.7008 H   0  0  0  0  0  0  0  0  0  0  0  0
   -2.5532    1.3805    1.0313 H   0  0  0  0  0  0  0  0  0  0  0  0
    0.5541   -1.6391   -1.5620 H   0  0  0  0  0  0  0  0  0  0  0  0
    0.1802   -3.2474   -0.7851 H   0  0  0  0  0  0  0  0  0  0  0  0
    1.9661   -2.8646    0.9285 H   0  0  0  0  0  0  0  0  0  0  0  0
    2.4048   -1.2905    0.1585 H   0  0  0  0  0  0  0  0  0  0  0  0
    0.1346    2.5567   -0.5292 H   0  0  0  0  0  0  0  0  0  0  0  0
    1.4110    2.2281   -1.7984 H   0  0  0  0  0  0  0  0  0  0  0  0
    3.0564    1.6215   -0.0073 H   0  0  0  0  0  0  0  0  0  0  0  0
    1.8351    2.0626    1.2469 H   0  0  0  0  0  0  0  0  0  0  0  0
  1  2  2  0  0  0  0
  2  3  1  0  0  0  0
  2  4  1  0  0  0  0
  2  5  1  0  0  0  0
  3  6  1  0  0  0  0
  3  7  1  0  0  0  0
  4  8  1  0  0  0  0
  4  9  1  0  0  0  0
  5 10  1  0  0  0  0
  5 11  1  0  0  0  0
  6  7  1  0  0  0  0
  6 12  1  0  0  0  0
  6 13  1  0  0  0  0
  7 14  1  0  0  0  0
  7 15  1  0  0  0  0
  8  9  1  0  0  0  0
  8 16  1  0  0  0  0
  8 17  1  0  0  0  0
  9 18  1  0  0  0  0
  9 19  1  0  0  0  0
 10 11  1  0  0  0  0
 10 20  1  0  0  0  0
 10 21  1  0  0  0  0
 11 22  1  0  0  0  0
 11 23  1  0  0  0  0
M  END
