DB04951
 OpenBabel07062211533D

 25 26  0  0  0  0  0  0  0  0999 V2000
   -0.1161   -2.6929    0.6323 O   0  0  0  0  0  0  0  0  0  0  0  0
    0.1746   -0.4069    0.0814 N   0  0  0  0  0  0  0  0  0  0  0  0
   -1.2422   -0.1001    0.0355 C   0  0  0  0  0  0  0  0  0  0  0  0
    1.1236    0.5999   -0.1125 C   0  0  0  0  0  0  0  0  0  0  0  0
    2.4459    0.3756   -0.0911 C   0  0  0  0  0  0  0  0  0  0  0  0
    0.5995   -1.7322    0.3481 C   0  0  0  0  0  0  0  0  0  0  0  0
    2.9253   -0.9628    0.1346 C   0  0  0  0  0  0  0  0  0  0  0  0
    2.0736   -1.9715    0.3334 C   0  0  0  0  0  0  0  0  0  0  0  0
   -1.6868    1.1603    0.4199 C   0  0  0  0  0  0  0  0  0  0  0  0
   -2.1436   -1.0686   -0.3927 C   0  0  0  0  0  0  0  0  0  0  0  0
    3.4659    1.4480   -0.3144 C   0  0  0  0  0  0  0  0  0  0  0  0
   -3.0493    1.4558    0.3754 C   0  0  0  0  0  0  0  0  0  0  0  0
   -3.5061   -0.7730   -0.4372 C   0  0  0  0  0  0  0  0  0  0  0  0
   -3.9588    0.4893   -0.0531 C   0  0  0  0  0  0  0  0  0  0  0  0
    0.7586    1.5977   -0.3272 H   0  0  0  0  0  0  0  0  0  0  0  0
    3.9950   -1.1441    0.1348 H   0  0  0  0  0  0  0  0  0  0  0  0
    2.4262   -2.9821    0.5061 H   0  0  0  0  0  0  0  0  0  0  0  0
   -1.0188    1.9296    0.7949 H   0  0  0  0  0  0  0  0  0  0  0  0
   -1.8359   -2.0419   -0.7593 H   0  0  0  0  0  0  0  0  0  0  0  0
    3.0007    2.4247   -0.4856 H   0  0  0  0  0  0  0  0  0  0  0  0
    4.0830    1.2175   -1.1895 H   0  0  0  0  0  0  0  0  0  0  0  0
    4.1220    1.5427    0.5575 H   0  0  0  0  0  0  0  0  0  0  0  0
   -3.4033    2.4359    0.6818 H   0  0  0  0  0  0  0  0  0  0  0  0
   -4.2136   -1.5205   -0.7838 H   0  0  0  0  0  0  0  0  0  0  0  0
   -5.0194    0.7198   -0.0891 H   0  0  0  0  0  0  0  0  0  0  0  0
  1  6  2  0  0  0  0
  2  3  1  0  0  0  0
  2  4  1  0  0  0  0
  2  6  1  0  0  0  0
  3  9  2  0  0  0  0
  3 10  1  0  0  0  0
  4  5  2  0  0  0  0
  4 15  1  0  0  0  0
  5  7  1  0  0  0  0
  5 11  1  0  0  0  0
  6  8  1  0  0  0  0
  7  8  2  0  0  0  0
  7 16  1  0  0  0  0
  8 17  1  0  0  0  0
  9 12  1  0  0  0  0
  9 18  1  0  0  0  0
 10 13  2  0  0  0  0
 10 19  1  0  0  0  0
 11 20  1  0  0  0  0
 11 21  1  0  0  0  0
 11 22  1  0  0  0  0
 12 14  2  0  0  0  0
 12 23  1  0  0  0  0
 13 14  1  0  0  0  0
 13 24  1  0  0  0  0
 14 25  1  0  0  0  0
M  END
