DB04657
 OpenBabel07062211533D

 29 30  0  0  0  0  0  0  0  0999 V2000
   -2.2193   -1.2019   -1.4945 S   0  0  0  0  0  0  0  0  0  0  0  0
   -3.5835    0.5033    0.7545 O   0  0  0  0  0  0  0  0  0  0  0  0
    0.1104    1.2315   -1.6765 O   0  0  0  0  0  0  0  0  0  0  0  0
    0.6995   -0.3445   -0.0287 N   0  0  0  0  0  0  0  0  0  0  0  0
   -3.9749   -1.0202   -1.1044 C   0  0  0  0  0  0  0  0  0  0  0  0
   -4.1030   -0.7736    0.3842 C   0  0  0  0  0  0  0  0  0  0  0  0
   -1.5759    0.0860   -0.5351 C   0  0  0  0  0  0  0  0  0  0  0  0
   -2.2709    0.7653    0.4009 C   0  0  0  0  0  0  0  0  0  0  0  0
   -0.1665    0.3968   -0.8188 C   0  0  0  0  0  0  0  0  0  0  0  0
   -1.7206    1.9334    1.1721 C   0  0  0  0  0  0  0  0  0  0  0  0
    2.1152   -0.3055   -0.0312 C   0  0  0  0  0  0  0  0  0  0  0  0
    2.8162   -1.1261    0.8359 C   0  0  0  0  0  0  0  0  0  0  0  0
    2.7665    0.5518   -0.9016 C   0  0  0  0  0  0  0  0  0  0  0  0
    4.2106   -1.0883    0.8326 C   0  0  0  0  0  0  0  0  0  0  0  0
    4.1608    0.5897   -0.9051 C   0  0  0  0  0  0  0  0  0  0  0  0
    4.8828   -0.2304   -0.0378 C   0  0  0  0  0  0  0  0  0  0  0  0
   -4.5000   -1.9342   -1.3957 H   0  0  0  0  0  0  0  0  0  0  0  0
   -4.3798   -0.1813   -1.6797 H   0  0  0  0  0  0  0  0  0  0  0  0
   -5.1647   -0.7688    0.6546 H   0  0  0  0  0  0  0  0  0  0  0  0
   -3.6287   -1.5575    0.9890 H   0  0  0  0  0  0  0  0  0  0  0  0
   -1.7045    1.6974    2.2414 H   0  0  0  0  0  0  0  0  0  0  0  0
   -2.3598    2.8105    1.0254 H   0  0  0  0  0  0  0  0  0  0  0  0
   -0.7062    2.2173    0.8804 H   0  0  0  0  0  0  0  0  0  0  0  0
    0.2884   -0.9976    0.6357 H   0  0  0  0  0  0  0  0  0  0  0  0
    2.3022   -1.7979    1.5176 H   0  0  0  0  0  0  0  0  0  0  0  0
    2.2783    1.2151   -1.6002 H   0  0  0  0  0  0  0  0  0  0  0  0
    4.7729   -1.7266    1.5077 H   0  0  0  0  0  0  0  0  0  0  0  0
    4.6857    1.2573   -1.5823 H   0  0  0  0  0  0  0  0  0  0  0  0
    5.9685   -0.2008   -0.0404 H   0  0  0  0  0  0  0  0  0  0  0  0
  1  5  1  0  0  0  0
  1  7  1  0  0  0  0
  2  6  1  0  0  0  0
  2  8  1  0  0  0  0
  3  9  2  0  0  0  0
  4  9  1  0  0  0  0
  4 11  1  0  0  0  0
  4 24  1  0  0  0  0
  5  6  1  0  0  0  0
  5 17  1  0  0  0  0
  5 18  1  0  0  0  0
  6 19  1  0  0  0  0
  6 20  1  0  0  0  0
  7  8  2  0  0  0  0
  7  9  1  0  0  0  0
  8 10  1  0  0  0  0
 10 21  1  0  0  0  0
 10 22  1  0  0  0  0
 10 23  1  0  0  0  0
 11 12  2  0  0  0  0
 11 13  1  0  0  0  0
 12 14  1  0  0  0  0
 12 25  1  0  0  0  0
 13 15  2  0  0  0  0
 13 26  1  0  0  0  0
 14 16  2  0  0  0  0
 14 27  1  0  0  0  0
 15 16  1  0  0  0  0
 15 28  1  0  0  0  0
 16 29  1  0  0  0  0
M  END
