DB04540
 OpenBabel07062211533D

 74 77  0  0  1  0  0  0  0  0999 V2000
    7.9028    1.7944   -0.6951 O   0  0  0  0  0  0  0  0  0  0  0  0
   -0.2960   -1.1207    0.1501 C   0  0  1  0  0  0  0  0  0  0  0  0
    0.3752   -0.1550    1.1469 C   0  0  2  0  0  0  0  0  0  0  0  0
    1.9052   -0.2275    1.1238 C   0  0  1  0  0  0  0  0  0  0  0  0
    2.4187    0.0854   -0.3119 C   0  0  1  0  0  0  0  0  0  0  0  0
   -1.7795   -0.8299    0.4837 C   0  0  2  0  0  0  0  0  0  0  0  0
    0.1396   -0.7027   -1.2613 C   0  0  0  0  0  0  0  0  0  0  0  0
    3.9945   -0.0148   -0.3976 C   0  0  2  0  0  0  0  0  0  0  0  0
   -0.3538   -0.4246    2.4598 C   0  0  0  0  0  0  0  0  0  0  0  0
    1.6711   -0.7241   -1.4072 C   0  0  0  0  0  0  0  0  0  0  0  0
   -1.7973   -0.7441    2.0282 C   0  0  0  0  0  0  0  0  0  0  0  0
    2.5120    0.7621    2.1296 C   0  0  0  0  0  0  0  0  0  0  0  0
   -2.8059   -1.8096   -0.0667 C   0  0  1  0  0  0  0  0  0  0  0  0
    0.0481   -2.6121    0.3881 C   0  0  0  0  0  0  0  0  0  0  0  0
    4.6516    0.6720    0.8080 C   0  0  0  0  0  0  0  0  0  0  0  0
    4.4583    0.6958   -1.7043 C   0  0  0  0  0  0  0  0  0  0  0  0
    3.9686    1.0196    1.9126 C   0  0  0  0  0  0  0  0  0  0  0  0
    4.4642   -1.4894   -0.4219 C   0  0  0  0  0  0  0  0  0  0  0  0
    6.1316    0.9633    0.7142 C   0  0  0  0  0  0  0  0  0  0  0  0
    5.9668    0.9210   -1.7972 C   0  0  0  0  0  0  0  0  0  0  0  0
   -4.2550   -1.4255    0.2996 C   0  0  0  0  0  0  0  0  0  0  0  0
    6.4875    1.6831   -0.5838 C   0  0  2  0  0  0  0  0  0  0  0  0
   -2.6788   -1.9018   -1.5926 C   0  0  0  0  0  0  0  0  0  0  0  0
   -4.7145   -0.0310   -0.1463 C   0  0  0  0  0  0  0  0  0  0  0  0
   -6.1341    0.3197    0.3112 C   0  0  0  0  0  0  0  0  0  0  0  0
   -6.6208    1.6909   -0.1972 C   0  0  0  0  0  0  0  0  0  0  0  0
   -6.5812    1.7995   -1.7224 C   0  0  0  0  0  0  0  0  0  0  0  0
   -5.7689    2.8037    0.4193 C   0  0  0  0  0  0  0  0  0  0  0  0
    0.1079    0.8759    0.8585 H   0  0  0  0  0  0  0  0  0  0  0  0
    2.2251   -1.2339    1.4162 H   0  0  0  0  0  0  0  0  0  0  0  0
    2.1552    1.1393   -0.5004 H   0  0  0  0  0  0  0  0  0  0  0  0
   -2.0002    0.1745    0.0971 H   0  0  0  0  0  0  0  0  0  0  0  0
   -0.2208    0.3090   -1.4877 H   0  0  0  0  0  0  0  0  0  0  0  0
   -0.2510   -1.3563   -2.0412 H   0  0  0  0  0  0  0  0  0  0  0  0
   -0.3215    0.4394    3.1313 H   0  0  0  0  0  0  0  0  0  0  0  0
    0.0825   -1.2761    2.9937 H   0  0  0  0  0  0  0  0  0  0  0  0
    2.0010   -1.7670   -1.4062 H   0  0  0  0  0  0  0  0  0  0  0  0
    1.9222   -0.3244   -2.3963 H   0  0  0  0  0  0  0  0  0  0  0  0
   -2.1191   -1.6831    2.4927 H   0  0  0  0  0  0  0  0  0  0  0  0
   -2.4858    0.0403    2.3621 H   0  0  0  0  0  0  0  0  0  0  0  0
    2.3713    0.3715    3.1448 H   0  0  0  0  0  0  0  0  0  0  0  0
    1.9902    1.7263    2.0866 H   0  0  0  0  0  0  0  0  0  0  0  0
   -2.6386   -2.8120    0.3470 H   0  0  0  0  0  0  0  0  0  0  0  0
   -0.3827   -3.2549   -0.3852 H   0  0  0  0  0  0  0  0  0  0  0  0
    1.1249   -2.8011    0.3771 H   0  0  0  0  0  0  0  0  0  0  0  0
   -0.3212   -2.9760    1.3523 H   0  0  0  0  0  0  0  0  0  0  0  0
    3.9670    1.6753   -1.7837 H   0  0  0  0  0  0  0  0  0  0  0  0
    4.1437    0.1211   -2.5835 H   0  0  0  0  0  0  0  0  0  0  0  0
    4.4851    1.5233    2.7261 H   0  0  0  0  0  0  0  0  0  0  0  0
    4.1544   -1.9976   -1.3408 H   0  0  0  0  0  0  0  0  0  0  0  0
    5.5547   -1.5800   -0.3789 H   0  0  0  0  0  0  0  0  0  0  0  0
    4.0672   -2.0565    0.4264 H   0  0  0  0  0  0  0  0  0  0  0  0
    6.4778    1.5699    1.5611 H   0  0  0  0  0  0  0  0  0  0  0  0
    6.6979    0.0265    0.7895 H   0  0  0  0  0  0  0  0  0  0  0  0
    6.4949   -0.0350   -1.9000 H   0  0  0  0  0  0  0  0  0  0  0  0
    6.2021    1.4816   -2.7105 H   0  0  0  0  0  0  0  0  0  0  0  0
   -4.9399   -2.1734   -0.1214 H   0  0  0  0  0  0  0  0  0  0  0  0
   -4.3757   -1.4997    1.3878 H   0  0  0  0  0  0  0  0  0  0  0  0
    6.0712    2.6979   -0.5809 H   0  0  0  0  0  0  0  0  0  0  0  0
   -2.5490   -0.9223   -2.0633 H   0  0  0  0  0  0  0  0  0  0  0  0
   -3.5839   -2.3455   -2.0253 H   0  0  0  0  0  0  0  0  0  0  0  0
   -1.8702   -2.5711   -1.8920 H   0  0  0  0  0  0  0  0  0  0  0  0
   -4.0293    0.7191    0.2555 H   0  0  0  0  0  0  0  0  0  0  0  0
   -4.6497    0.0176   -1.2372 H   0  0  0  0  0  0  0  0  0  0  0  0
    8.2198    2.2853    0.0822 H   0  0  0  0  0  0  0  0  0  0  0  0
   -6.1835    0.2944    1.4069 H   0  0  0  0  0  0  0  0  0  0  0  0
   -6.8246   -0.4529   -0.0499 H   0  0  0  0  0  0  0  0  0  0  0  0
   -7.6580    1.8224    0.1352 H   0  0  0  0  0  0  0  0  0  0  0  0
   -7.1017    0.9557   -2.1869 H   0  0  0  0  0  0  0  0  0  0  0  0
   -7.0824    2.7181   -2.0476 H   0  0  0  0  0  0  0  0  0  0  0  0
   -5.5597    1.8345   -2.1135 H   0  0  0  0  0  0  0  0  0  0  0  0
   -5.7285    2.7109    1.5096 H   0  0  0  0  0  0  0  0  0  0  0  0
   -6.2049    3.7822    0.1884 H   0  0  0  0  0  0  0  0  0  0  0  0
   -4.7443    2.8087    0.0346 H   0  0  0  0  0  0  0  0  0  0  0  0
  1 22  1  0  0  0  0
  1 65  1  0  0  0  0
  2  3  1  1  0  0  0
  2  7  1  0  0  0  0
  2 14  1  0  0  0  0
  3  4  1  1  0  0  0
  3  9  1  0  0  0  0
  3 29  1  0  0  0  0
  4  5  1  6  0  0  0
  4 12  1  0  0  0  0
  4 30  1  0  0  0  0
  5  8  1  6  0  0  0
  5 10  1  0  0  0  0
  5 31  1  0  0  0  0
  6  2  1  6  0  0  0
  6 11  1  0  0  0  0
  6 13  1  0  0  0  0
  6 32  1  0  0  0  0
  7 10  1  0  0  0  0
  7 33  1  0  0  0  0
  7 34  1  0  0  0  0
  8 15  1  0  0  0  0
  8 16  1  0  0  0  0
  8 18  1  6  0  0  0
  9 11  1  0  0  0  0
  9 35  1  0  0  0  0
  9 36  1  0  0  0  0
 10 37  1  0  0  0  0
 10 38  1  0  0  0  0
 11 39  1  0  0  0  0
 11 40  1  0  0  0  0
 12 17  1  0  0  0  0
 12 41  1  0  0  0  0
 12 42  1  0  0  0  0
 13 21  1  0  0  0  0
 13 23  1  0  0  0  0
 13 43  1  1  0  0  0
 14 44  1  0  0  0  0
 14 45  1  0  0  0  0
 14 46  1  0  0  0  0
 15 17  2  0  0  0  0
 15 19  1  0  0  0  0
 16 20  1  0  0  0  0
 16 47  1  0  0  0  0
 16 48  1  0  0  0  0
 17 49  1  0  0  0  0
 18 50  1  0  0  0  0
 18 51  1  0  0  0  0
 18 52  1  0  0  0  0
 19 22  1  0  0  0  0
 19 53  1  0  0  0  0
 19 54  1  0  0  0  0
 20 22  1  0  0  0  0
 20 55  1  0  0  0  0
 20 56  1  0  0  0  0
 21 24  1  0  0  0  0
 21 57  1  0  0  0  0
 21 58  1  0  0  0  0
 22 59  1  1  0  0  0
 23 60  1  0  0  0  0
 23 61  1  0  0  0  0
 23 62  1  0  0  0  0
 24 25  1  0  0  0  0
 24 63  1  0  0  0  0
 24 64  1  0  0  0  0
 25 26  1  0  0  0  0
 25 66  1  0  0  0  0
 25 67  1  0  0  0  0
 26 27  1  0  0  0  0
 26 28  1  0  0  0  0
 26 68  1  0  0  0  0
 27 69  1  0  0  0  0
 27 70  1  0  0  0  0
 27 71  1  0  0  0  0
 28 72  1  0  0  0  0
 28 73  1  0  0  0  0
 28 74  1  0  0  0  0
M  END
