DB04838
 OpenBabel07062211533D

 44 45  0  0  1  0  0  0  0  0999 V2000
    0.6165   -1.5184    1.0756 O   0  0  0  0  0  0  0  0  0  0  0  0
    1.1865   -0.3255    2.9653 O   0  0  0  0  0  0  0  0  0  0  0  0
    3.8115   -0.5732    2.4178 O   0  0  0  0  0  0  0  0  0  0  0  0
   -1.8096    1.2807    0.2244 C   0  0  0  0  0  0  0  0  0  0  0  0
   -2.6744    0.4329   -0.7384 C   0  0  0  0  0  0  0  0  0  0  0  0
   -2.8605   -1.0231   -0.2796 C   0  0  2  0  0  0  0  0  0  0  0  0
   -0.4768    0.5557    0.5081 C   0  0  0  0  0  0  0  0  0  0  0  0
   -0.6590   -0.8915    0.9689 C   0  0  1  0  0  0  0  0  0  0  0  0
   -1.5057   -1.6891   -0.0194 C   0  0  0  0  0  0  0  0  0  0  0  0
   -1.5086    2.6381   -0.4391 C   0  0  0  0  0  0  0  0  0  0  0  0
   -2.5677    1.5548    1.5376 C   0  0  0  0  0  0  0  0  0  0  0  0
   -3.6551   -1.8144   -1.3187 C   0  0  0  0  0  0  0  0  0  0  0  0
    1.4941   -0.9369    1.9498 C   0  0  0  0  0  0  0  0  0  0  0  0
    2.9175   -1.1298    1.4648 C   0  0  1  0  0  0  0  0  0  0  0  0
    3.1700   -0.4789    0.1271 C   0  0  0  0  0  0  0  0  0  0  0  0
    2.9557   -1.2054   -1.0339 C   0  0  0  0  0  0  0  0  0  0  0  0
    3.6122    0.8341    0.0826 C   0  0  0  0  0  0  0  0  0  0  0  0
    3.1894   -0.6036   -2.2704 C   0  0  0  0  0  0  0  0  0  0  0  0
    3.8459    1.4358   -1.1540 C   0  0  0  0  0  0  0  0  0  0  0  0
    3.6344    0.7169   -2.3305 C   0  0  0  0  0  0  0  0  0  0  0  0
   -2.2045    0.4297   -1.7320 H   0  0  0  0  0  0  0  0  0  0  0  0
   -3.6578    0.9037   -0.8675 H   0  0  0  0  0  0  0  0  0  0  0  0
   -3.4394   -1.0330    0.6519 H   0  0  0  0  0  0  0  0  0  0  0  0
    0.0982    1.1363    1.2390 H   0  0  0  0  0  0  0  0  0  0  0  0
    0.1394    0.5552   -0.4023 H   0  0  0  0  0  0  0  0  0  0  0  0
   -1.1433   -0.9273    1.9523 H   0  0  0  0  0  0  0  0  0  0  0  0
   -1.6492   -2.7074    0.3642 H   0  0  0  0  0  0  0  0  0  0  0  0
   -0.9524   -1.8074   -0.9612 H   0  0  0  0  0  0  0  0  0  0  0  0
   -2.4328    3.1836   -0.6612 H   0  0  0  0  0  0  0  0  0  0  0  0
   -0.8951    3.2701    0.2129 H   0  0  0  0  0  0  0  0  0  0  0  0
   -0.9651    2.5082   -1.3818 H   0  0  0  0  0  0  0  0  0  0  0  0
   -3.5057    2.0876    1.3441 H   0  0  0  0  0  0  0  0  0  0  0  0
   -2.8193    0.6376    2.0774 H   0  0  0  0  0  0  0  0  0  0  0  0
   -1.9684    2.1761    2.2130 H   0  0  0  0  0  0  0  0  0  0  0  0
   -4.6370   -1.3591   -1.4851 H   0  0  0  0  0  0  0  0  0  0  0  0
   -3.1310   -1.8504   -2.2798 H   0  0  0  0  0  0  0  0  0  0  0  0
   -3.8160   -2.8440   -0.9822 H   0  0  0  0  0  0  0  0  0  0  0  0
    3.1319   -2.2040    1.4190 H   0  0  0  0  0  0  0  0  0  0  0  0
    3.7245   -1.0891    3.2377 H   0  0  0  0  0  0  0  0  0  0  0  0
    2.6091   -2.2342   -0.9982 H   0  0  0  0  0  0  0  0  0  0  0  0
    3.7696    1.4207    0.9828 H   0  0  0  0  0  0  0  0  0  0  0  0
    3.0241   -1.1632   -3.1864 H   0  0  0  0  0  0  0  0  0  0  0  0
    4.1887    2.4654   -1.2012 H   0  0  0  0  0  0  0  0  0  0  0  0
    3.8151    1.1857   -3.2933 H   0  0  0  0  0  0  0  0  0  0  0  0
  1  8  1  0  0  0  0
  1 13  1  0  0  0  0
  2 13  2  0  0  0  0
  3 14  1  0  0  0  0
  3 39  1  0  0  0  0
  4  5  1  0  0  0  0
  4  7  1  0  0  0  0
  4 10  1  0  0  0  0
  4 11  1  0  0  0  0
  5  6  1  0  0  0  0
  5 21  1  0  0  0  0
  5 22  1  0  0  0  0
  6  9  1  0  0  0  0
  6 12  1  0  0  0  0
  6 23  1  1  0  0  0
  7  8  1  0  0  0  0
  7 24  1  0  0  0  0
  7 25  1  0  0  0  0
  8  9  1  0  0  0  0
  8 26  1  1  0  0  0
  9 27  1  0  0  0  0
  9 28  1  0  0  0  0
 10 29  1  0  0  0  0
 10 30  1  0  0  0  0
 10 31  1  0  0  0  0
 11 32  1  0  0  0  0
 11 33  1  0  0  0  0
 11 34  1  0  0  0  0
 12 35  1  0  0  0  0
 12 36  1  0  0  0  0
 12 37  1  0  0  0  0
 13 14  1  0  0  0  0
 14 15  1  0  0  0  0
 14 38  1  6  0  0  0
 15 16  2  0  0  0  0
 15 17  1  0  0  0  0
 16 18  1  0  0  0  0
 16 40  1  0  0  0  0
 17 19  2  0  0  0  0
 17 41  1  0  0  0  0
 18 20  2  0  0  0  0
 18 42  1  0  0  0  0
 19 20  1  0  0  0  0
 19 43  1  0  0  0  0
 20 44  1  0  0  0  0
M  END
