DB04813
 OpenBabel07062211533D

 25 26  0  0  0  0  0  0  0  0999 V2000
    4.8509    1.5576    0.1495 Cl  0  0  0  0  0  0  0  0  0  0  0  0
   -4.8510   -1.5577    0.1500 Cl  0  0  0  0  0  0  0  0  0  0  0  0
    2.3406   -2.7782    2.1201 Cl  0  0  0  0  0  0  0  0  0  0  0  0
   -2.3407    2.7787    2.1197 Cl  0  0  0  0  0  0  0  0  0  0  0  0
   -0.0001   -0.0002   -1.9187 S   0  0  0  0  0  0  0  0  0  0  0  0
    2.4868    1.7237   -1.6545 O   0  0  0  0  0  0  0  0  0  0  0  0
   -2.4870   -1.7240   -1.6541 O   0  0  0  0  0  0  0  0  0  0  0  0
    1.3653   -0.2040   -0.7824 C   0  0  0  0  0  0  0  0  0  0  0  0
   -1.3636    0.2037   -0.7839 C   0  0  0  0  0  0  0  0  0  0  0  0
    2.4478    0.6759   -0.7791 C   0  0  0  0  0  0  0  0  0  0  0  0
   -2.4479   -0.6760   -0.7789 C   0  0  0  0  0  0  0  0  0  0  0  0
    1.3321   -1.2720    0.1142 C   0  0  0  0  0  0  0  0  0  0  0  0
   -1.3324    1.2720    0.1139 C   0  0  0  0  0  0  0  0  0  0  0  0
    3.4968    0.4879    0.1208 C   0  0  0  0  0  0  0  0  0  0  0  0
   -3.4969   -0.4878    0.1210 C   0  0  0  0  0  0  0  0  0  0  0  0
    2.3813   -1.4602    1.0141 C   0  0  0  0  0  0  0  0  0  0  0  0
   -2.3813    1.4603    1.0138 C   0  0  0  0  0  0  0  0  0  0  0  0
    3.4635   -0.5801    1.0174 C   0  0  0  0  0  0  0  0  0  0  0  0
   -3.4637    0.5804    1.0172 C   0  0  0  0  0  0  0  0  0  0  0  0
    0.4970   -1.9697    0.1159 H   0  0  0  0  0  0  0  0  0  0  0  0
   -0.4974    1.9701    0.1158 H   0  0  0  0  0  0  0  0  0  0  0  0
    4.2812   -0.7283    1.7198 H   0  0  0  0  0  0  0  0  0  0  0  0
   -4.2812    0.7287    1.7196 H   0  0  0  0  0  0  0  0  0  0  0  0
    1.6787    1.7018   -2.1957 H   0  0  0  0  0  0  0  0  0  0  0  0
   -1.6789   -1.7024   -2.1955 H   0  0  0  0  0  0  0  0  0  0  0  0
  1 14  1  0  0  0  0
  2 15  1  0  0  0  0
  3 16  1  0  0  0  0
  4 17  1  0  0  0  0
  5  8  1  0  0  0  0
  5  9  1  0  0  0  0
  6 10  1  0  0  0  0
  6 24  1  0  0  0  0
  7 11  1  0  0  0  0
  7 25  1  0  0  0  0
  8 10  2  0  0  0  0
  8 12  1  0  0  0  0
  9 11  2  0  0  0  0
  9 13  1  0  0  0  0
 10 14  1  0  0  0  0
 11 15  1  0  0  0  0
 12 16  2  0  0  0  0
 12 20  1  0  0  0  0
 13 17  2  0  0  0  0
 13 21  1  0  0  0  0
 14 18  2  0  0  0  0
 15 19  2  0  0  0  0
 16 18  1  0  0  0  0
 17 19  1  0  0  0  0
 18 22  1  0  0  0  0
 19 23  1  0  0  0  0
M  END
