DB04115
 OpenBabel07062211533D

 43 47  0  0  0  0  0  0  0  0999 V2000
   -6.5321    0.1399    0.0426 O   0  0  0  0  0  0  0  0  0  0  0  0
   -5.4002    2.2505   -0.2148 O   0  0  0  0  0  0  0  0  0  0  0  0
    3.9043   -1.2910   -0.3210 O   0  0  0  0  0  0  0  0  0  0  0  0
    5.4199    0.9153    0.2927 O   0  0  0  0  0  0  0  0  0  0  0  0
   -0.2797   -1.0388   -0.3112 N   0  3  0  0  0  0  0  0  0  0  0  0
   -1.0472   -2.2540   -0.6842 C   0  0  0  0  0  0  0  0  0  0  0  0
   -2.2707   -2.3801    0.2028 C   0  0  0  0  0  0  0  0  0  0  0  0
   -0.9121    0.1360   -0.0238 C   0  0  0  0  0  0  0  0  0  0  0  0
   -3.0797   -1.1186    0.0909 C   0  0  0  0  0  0  0  0  0  0  0  0
   -2.3885    0.1178   -0.0338 C   0  0  0  0  0  0  0  0  0  0  0  0
    1.0709   -1.1213   -0.3179 C   0  0  0  0  0  0  0  0  0  0  0  0
   -0.1366    1.2643    0.2935 C   0  0  0  0  0  0  0  0  0  0  0  0
    1.8770   -0.0253   -0.0148 C   0  0  0  0  0  0  0  0  0  0  0  0
    1.2604    1.1952    0.3000 C   0  0  0  0  0  0  0  0  0  0  0  0
   -4.4819   -1.1775    0.1384 C   0  0  0  0  0  0  0  0  0  0  0  0
   -3.1535    1.2951   -0.1509 C   0  0  0  0  0  0  0  0  0  0  0  0
   -5.1787    0.0040    0.0284 C   0  0  0  0  0  0  0  0  0  0  0  0
   -4.5327    1.2056   -0.1168 C   0  0  0  0  0  0  0  0  0  0  0  0
    3.2787   -0.1144   -0.0171 C   0  0  0  0  0  0  0  0  0  0  0  0
    2.0589    2.3087    0.6124 C   0  0  0  0  0  0  0  0  0  0  0  0
    4.0600    0.9986    0.2933 C   0  0  0  0  0  0  0  0  0  0  0  0
   -6.6661    1.5672   -0.1136 C   0  0  0  0  0  0  0  0  0  0  0  0
    3.4506    2.2094    0.6084 C   0  0  0  0  0  0  0  0  0  0  0  0
    4.1800   -2.1722    0.7634 C   0  0  0  0  0  0  0  0  0  0  0  0
    6.0863    1.2041   -0.9347 C   0  0  0  0  0  0  0  0  0  0  0  0
   -0.4095   -3.1359   -0.5659 H   0  0  0  0  0  0  0  0  0  0  0  0
   -1.3049   -2.1392   -1.7440 H   0  0  0  0  0  0  0  0  0  0  0  0
   -1.9804   -2.5247    1.2502 H   0  0  0  0  0  0  0  0  0  0  0  0
   -2.8573   -3.2502   -0.1123 H   0  0  0  0  0  0  0  0  0  0  0  0
    1.4794   -2.0897   -0.5842 H   0  0  0  0  0  0  0  0  0  0  0  0
   -0.6169    2.2052    0.5530 H   0  0  0  0  0  0  0  0  0  0  0  0
   -5.0021   -2.1229    0.2500 H   0  0  0  0  0  0  0  0  0  0  0  0
   -2.6915    2.2698   -0.2722 H   0  0  0  0  0  0  0  0  0  0  0  0
    1.6019    3.2642    0.8605 H   0  0  0  0  0  0  0  0  0  0  0  0
   -7.2119    1.9651    0.7496 H   0  0  0  0  0  0  0  0  0  0  0  0
   -7.2473    1.7683   -1.0209 H   0  0  0  0  0  0  0  0  0  0  0  0
    4.0512    3.0814    0.8526 H   0  0  0  0  0  0  0  0  0  0  0  0
    4.6134   -3.0900    0.3566 H   0  0  0  0  0  0  0  0  0  0  0  0
    3.2649   -2.4299    1.3056 H   0  0  0  0  0  0  0  0  0  0  0  0
    4.9037   -1.7202    1.4488 H   0  0  0  0  0  0  0  0  0  0  0  0
    5.8902    2.2358   -1.2436 H   0  0  0  0  0  0  0  0  0  0  0  0
    5.7685    0.5100   -1.7192 H   0  0  0  0  0  0  0  0  0  0  0  0
    7.1616    1.0846   -0.7771 H   0  0  0  0  0  0  0  0  0  0  0  0
  1 17  1  0  0  0  0
  1 22  1  0  0  0  0
  2 18  1  0  0  0  0
  2 22  1  0  0  0  0
  3 19  1  0  0  0  0
  3 24  1  0  0  0  0
  4 21  1  0  0  0  0
  4 25  1  0  0  0  0
  5  6  1  0  0  0  0
  5  8  2  0  0  0  0
  5 11  1  0  0  0  0
  6  7  1  0  0  0  0
  6 26  1  0  0  0  0
  6 27  1  0  0  0  0
  7  9  1  0  0  0  0
  7 28  1  0  0  0  0
  7 29  1  0  0  0  0
  8 10  1  0  0  0  0
  8 12  1  0  0  0  0
  9 10  2  0  0  0  0
  9 15  1  0  0  0  0
 10 16  1  0  0  0  0
 11 13  2  0  0  0  0
 11 30  1  0  0  0  0
 12 14  2  0  0  0  0
 12 31  1  0  0  0  0
 13 14  1  0  0  0  0
 13 19  1  0  0  0  0
 14 20  1  0  0  0  0
 15 17  2  0  0  0  0
 15 32  1  0  0  0  0
 16 18  2  0  0  0  0
 16 33  1  0  0  0  0
 17 18  1  0  0  0  0
 19 21  2  0  0  0  0
 20 23  2  0  0  0  0
 20 34  1  0  0  0  0
 21 23  1  0  0  0  0
 22 35  1  0  0  0  0
 22 36  1  0  0  0  0
 23 37  1  0  0  0  0
 24 38  1  0  0  0  0
 24 39  1  0  0  0  0
 24 40  1  0  0  0  0
 25 41  1  0  0  0  0
 25 42  1  0  0  0  0
 25 43  1  0  0  0  0
M  CHG  1   5   1
M  END
