DB04339
 OpenBabel07062211533D

 20 19  0  0  1  0  0  0  0  0999 V2000
    0.7680    0.4489    0.5552 S   0  0  0  0  0  0  0  0  0  0  0  0
   -2.5406    2.0947    0.5021 O   0  0  0  0  0  0  0  0  0  0  0  0
   -2.1117    1.3198   -1.5863 O   0  0  0  0  0  0  0  0  0  0  0  0
    4.4744    0.1506   -0.5704 O   0  0  0  0  0  0  0  0  0  0  0  0
    3.5561    1.0557    1.3014 O   0  0  0  0  0  0  0  0  0  0  0  0
   -2.9022   -1.1768   -0.2418 N   0  0  0  0  0  0  0  0  0  0  0  0
   -1.9172   -0.2209    0.2680 C   0  0  1  0  0  0  0  0  0  0  0  0
   -0.5017   -0.7181   -0.0309 C   0  0  0  0  0  0  0  0  0  0  0  0
   -2.2043    1.1205   -0.3806 C   0  0  0  0  0  0  0  0  0  0  0  0
    2.2248   -0.4317   -0.0495 C   0  0  0  0  0  0  0  0  0  0  0  0
    3.4608    0.3407    0.3119 C   0  0  0  0  0  0  0  0  0  0  0  0
   -2.0554   -0.1300    1.3523 H   0  0  0  0  0  0  0  0  0  0  0  0
   -0.3320   -1.6854    0.4550 H   0  0  0  0  0  0  0  0  0  0  0  0
   -0.3656   -0.8500   -1.1107 H   0  0  0  0  0  0  0  0  0  0  0  0
    2.1584   -0.5136   -1.1384 H   0  0  0  0  0  0  0  0  0  0  0  0
    2.2912   -1.4273    0.3978 H   0  0  0  0  0  0  0  0  0  0  0  0
   -3.8368   -0.8932    0.0510 H   0  0  0  0  0  0  0  0  0  0  0  0
   -2.7396   -2.0915    0.1777 H   0  0  0  0  0  0  0  0  0  0  0  0
   -2.7040    2.9526    0.0555 H   0  0  0  0  0  0  0  0  0  0  0  0
    5.2775    0.6548   -0.3193 H   0  0  0  0  0  0  0  0  0  0  0  0
  1  8  1  0  0  0  0
  1 10  1  0  0  0  0
  2  9  1  0  0  0  0
  2 19  1  0  0  0  0
  3  9  2  0  0  0  0
  4 11  1  0  0  0  0
  4 20  1  0  0  0  0
  5 11  2  0  0  0  0
  6  7  1  0  0  0  0
  6 17  1  0  0  0  0
  6 18  1  0  0  0  0
  7  8  1  0  0  0  0
  7  9  1  0  0  0  0
  7 12  1  1  0  0  0
  8 13  1  0  0  0  0
  8 14  1  0  0  0  0
 10 11  1  0  0  0  0
 10 15  1  0  0  0  0
 10 16  1  0  0  0  0
M  END
