DB04822
 OpenBabel07062211533D

 57 57  0  0  0  0  0  0  0  0999 V2000
   -1.3211   -1.7230    0.4659 O   0  0  0  0  0  0  0  0  0  0  0  0
   -3.2565   -1.8400    1.7059 O   0  0  0  0  0  0  0  0  0  0  0  0
    1.4074   -2.1776    0.7980 O   0  0  0  0  0  0  0  0  0  0  0  0
    3.1128   -0.0682   -0.0500 N   0  0  0  0  0  0  0  0  0  0  0  0
   -2.9492   -0.0013    0.1023 C   0  0  0  0  0  0  0  0  0  0  0  0
   -4.3441    0.4753    0.6238 C   0  0  0  0  0  0  0  0  0  0  0  0
   -3.0237   -0.3866   -1.4114 C   0  0  0  0  0  0  0  0  0  0  0  0
   -1.8991    1.0908    0.4129 C   0  0  0  0  0  0  0  0  0  0  0  0
   -2.5549   -1.2878    0.8667 C   0  0  0  0  0  0  0  0  0  0  0  0
   -4.8622    1.7728    0.0103 C   0  0  0  0  0  0  0  0  0  0  0  0
   -4.0473   -1.4623   -1.7693 C   0  0  0  0  0  0  0  0  0  0  0  0
   -1.1547    1.6573   -0.6220 C   0  0  0  0  0  0  0  0  0  0  0  0
   -1.6957    1.5090    1.7280 C   0  0  0  0  0  0  0  0  0  0  0  0
   -0.8498   -2.9168    1.0984 C   0  0  0  0  0  0  0  0  0  0  0  0
   -0.2074    2.6421   -0.3416 C   0  0  0  0  0  0  0  0  0  0  0  0
   -0.7485    2.4938    2.0082 C   0  0  0  0  0  0  0  0  0  0  0  0
    3.6088   -1.2613    0.6197 C   0  0  0  0  0  0  0  0  0  0  0  0
    0.5205   -3.2610    0.5471 C   0  0  0  0  0  0  0  0  0  0  0  0
    2.7163   -2.4551    0.3204 C   0  0  0  0  0  0  0  0  0  0  0  0
   -0.0044    3.0603    0.9736 C   0  0  0  0  0  0  0  0  0  0  0  0
    3.4742   -0.0827   -1.4696 C   0  0  0  0  0  0  0  0  0  0  0  0
    3.6341    1.1410    0.5919 C   0  0  0  0  0  0  0  0  0  0  0  0
    2.9024    1.1243   -2.1939 C   0  0  0  0  0  0  0  0  0  0  0  0
    5.1482    1.2096    0.4859 C   0  0  0  0  0  0  0  0  0  0  0  0
   -4.3196    0.6098    1.7132 H   0  0  0  0  0  0  0  0  0  0  0  0
   -5.0953   -0.3079    0.4651 H   0  0  0  0  0  0  0  0  0  0  0  0
   -2.0469   -0.7488   -1.7591 H   0  0  0  0  0  0  0  0  0  0  0  0
   -3.2589    0.4964   -2.0184 H   0  0  0  0  0  0  0  0  0  0  0  0
   -5.8392    2.0193    0.4399 H   0  0  0  0  0  0  0  0  0  0  0  0
   -4.9943    1.6809   -1.0712 H   0  0  0  0  0  0  0  0  0  0  0  0
   -4.1953    2.6162    0.2095 H   0  0  0  0  0  0  0  0  0  0  0  0
   -3.9603   -1.7139   -2.8319 H   0  0  0  0  0  0  0  0  0  0  0  0
   -5.0715   -1.1176   -1.6031 H   0  0  0  0  0  0  0  0  0  0  0  0
   -3.8892   -2.3821   -1.1990 H   0  0  0  0  0  0  0  0  0  0  0  0
   -1.2693    1.3715   -1.6611 H   0  0  0  0  0  0  0  0  0  0  0  0
   -2.2532    1.0746    2.5528 H   0  0  0  0  0  0  0  0  0  0  0  0
   -1.5488   -3.7379    0.9061 H   0  0  0  0  0  0  0  0  0  0  0  0
   -0.7789   -2.7341    2.1769 H   0  0  0  0  0  0  0  0  0  0  0  0
    3.5871   -1.1139    1.7077 H   0  0  0  0  0  0  0  0  0  0  0  0
    4.6407   -1.5078    0.3418 H   0  0  0  0  0  0  0  0  0  0  0  0
    0.3699    3.0878   -1.1463 H   0  0  0  0  0  0  0  0  0  0  0  0
   -0.5878    2.8173    3.0325 H   0  0  0  0  0  0  0  0  0  0  0  0
    0.8965   -4.1729    1.0236 H   0  0  0  0  0  0  0  0  0  0  0  0
    0.4530   -3.4176   -0.5358 H   0  0  0  0  0  0  0  0  0  0  0  0
    3.1097   -3.3313    0.8504 H   0  0  0  0  0  0  0  0  0  0  0  0
    2.6894   -2.6978   -0.7469 H   0  0  0  0  0  0  0  0  0  0  0  0
    0.7341    3.8262    1.1918 H   0  0  0  0  0  0  0  0  0  0  0  0
    3.0222   -0.9586   -1.9489 H   0  0  0  0  0  0  0  0  0  0  0  0
    4.5506   -0.1697   -1.6554 H   0  0  0  0  0  0  0  0  0  0  0  0
    3.3482    1.1394    1.6519 H   0  0  0  0  0  0  0  0  0  0  0  0
    3.1756    2.0515    0.1923 H   0  0  0  0  0  0  0  0  0  0  0  0
    3.0180    0.9874   -3.2753 H   0  0  0  0  0  0  0  0  0  0  0  0
    3.4150    2.0570   -1.9424 H   0  0  0  0  0  0  0  0  0  0  0  0
    1.8324    1.2380   -1.9990 H   0  0  0  0  0  0  0  0  0  0  0  0
    5.6583    0.3451    0.9193 H   0  0  0  0  0  0  0  0  0  0  0  0
    5.5050    1.3600   -0.5367 H   0  0  0  0  0  0  0  0  0  0  0  0
    5.4965    2.0807    1.0542 H   0  0  0  0  0  0  0  0  0  0  0  0
  1  9  1  0  0  0  0
  1 14  1  0  0  0  0
  2  9  2  0  0  0  0
  3 18  1  0  0  0  0
  3 19  1  0  0  0  0
  4 17  1  0  0  0  0
  4 21  1  0  0  0  0
  4 22  1  0  0  0  0
  5  6  1  0  0  0  0
  5  7  1  0  0  0  0
  5  8  1  0  0  0  0
  5  9  1  0  0  0  0
  6 10  1  0  0  0  0
  6 25  1  0  0  0  0
  6 26  1  0  0  0  0
  7 11  1  0  0  0  0
  7 27  1  0  0  0  0
  7 28  1  0  0  0  0
  8 12  2  0  0  0  0
  8 13  1  0  0  0  0
 10 29  1  0  0  0  0
 10 30  1  0  0  0  0
 10 31  1  0  0  0  0
 11 32  1  0  0  0  0
 11 33  1  0  0  0  0
 11 34  1  0  0  0  0
 12 15  1  0  0  0  0
 12 35  1  0  0  0  0
 13 16  2  0  0  0  0
 13 36  1  0  0  0  0
 14 18  1  0  0  0  0
 14 37  1  0  0  0  0
 14 38  1  0  0  0  0
 15 20  2  0  0  0  0
 15 41  1  0  0  0  0
 16 20  1  0  0  0  0
 16 42  1  0  0  0  0
 17 19  1  0  0  0  0
 17 39  1  0  0  0  0
 17 40  1  0  0  0  0
 18 43  1  0  0  0  0
 18 44  1  0  0  0  0
 19 45  1  0  0  0  0
 19 46  1  0  0  0  0
 20 47  1  0  0  0  0
 21 23  1  0  0  0  0
 21 48  1  0  0  0  0
 21 49  1  0  0  0  0
 22 24  1  0  0  0  0
 22 50  1  0  0  0  0
 22 51  1  0  0  0  0
 23 52  1  0  0  0  0
 23 53  1  0  0  0  0
 23 54  1  0  0  0  0
 24 55  1  0  0  0  0
 24 56  1  0  0  0  0
 24 57  1  0  0  0  0
M  END
