DB04854
 OpenBabel07062211533D

 38 39  0  0  0  0  0  0  0  0999 V2000
   -3.6248    1.3525   -0.2813 S   0  0  0  0  0  0  0  0  0  0  0  0
    2.7493    0.0268    0.7999 O   0  0  0  0  0  0  0  0  0  0  0  0
   -6.1457    2.4987   -0.8563 O   0  0  0  0  0  0  0  0  0  0  0  0
   -7.4736    0.6835   -0.5977 O   0  0  0  0  0  0  0  0  0  0  0  0
   -3.5568   -1.1631    0.3103 N   0  0  0  0  0  0  0  0  0  0  0  0
    1.8174    3.4764    1.1243 N   0  0  0  0  0  0  0  0  0  0  0  0
    4.8848    0.2310   -0.3164 C   0  0  0  0  0  0  0  0  0  0  0  0
    3.5210   -0.4645   -0.2882 C   0  0  0  0  0  0  0  0  0  0  0  0
    5.6732   -0.0361    0.9675 C   0  0  0  0  0  0  0  0  0  0  0  0
    5.6872   -0.2192   -1.5353 C   0  0  0  0  0  0  0  0  0  0  0  0
    1.3876    0.0193    0.6447 C   0  0  0  0  0  0  0  0  0  0  0  0
   -1.3757   -0.0544    0.3215 C   0  0  0  0  0  0  0  0  0  0  0  0
    0.6531    1.1995    0.7080 C   0  0  0  0  0  0  0  0  0  0  0  0
    0.7503   -1.1975    0.4212 C   0  0  0  0  0  0  0  0  0  0  0  0
   -0.7319    1.1626    0.5460 C   0  0  0  0  0  0  0  0  0  0  0  0
   -0.6346   -1.2343    0.2589 C   0  0  0  0  0  0  0  0  0  0  0  0
   -2.8080   -0.0931    0.1543 C   0  0  0  0  0  0  0  0  0  0  0  0
   -4.8746   -0.8256    0.0701 C   0  0  0  0  0  0  0  0  0  0  0  0
   -5.1081    0.4919   -0.2640 C   0  0  0  0  0  0  0  0  0  0  0  0
   -5.8954   -1.8870    0.1915 C   0  0  0  0  0  0  0  0  0  0  0  0
    1.2962    2.4570    0.9380 C   0  0  0  0  0  0  0  0  0  0  0  0
   -6.3254    1.1670   -0.5694 C   0  0  0  0  0  0  0  0  0  0  0  0
    4.7222    1.3144   -0.3821 H   0  0  0  0  0  0  0  0  0  0  0  0
    3.0035   -0.2800   -1.2393 H   0  0  0  0  0  0  0  0  0  0  0  0
    3.6485   -1.5476   -0.1719 H   0  0  0  0  0  0  0  0  0  0  0  0
    6.6473    0.4635    0.9350 H   0  0  0  0  0  0  0  0  0  0  0  0
    5.8475   -1.1081    1.1102 H   0  0  0  0  0  0  0  0  0  0  0  0
    5.1387    0.3404    1.8457 H   0  0  0  0  0  0  0  0  0  0  0  0
    6.6526    0.2964   -1.5775 H   0  0  0  0  0  0  0  0  0  0  0  0
    5.1480    0.0067   -2.4612 H   0  0  0  0  0  0  0  0  0  0  0  0
    5.8800   -1.2971   -1.5091 H   0  0  0  0  0  0  0  0  0  0  0  0
    1.3129   -2.1259    0.3789 H   0  0  0  0  0  0  0  0  0  0  0  0
   -1.2674    2.1046    0.6305 H   0  0  0  0  0  0  0  0  0  0  0  0
   -1.1135   -2.1947    0.0839 H   0  0  0  0  0  0  0  0  0  0  0  0
   -6.4200   -2.0304   -0.7584 H   0  0  0  0  0  0  0  0  0  0  0  0
   -5.4393   -2.8430    0.4685 H   0  0  0  0  0  0  0  0  0  0  0  0
   -6.6301   -1.6319    0.9618 H   0  0  0  0  0  0  0  0  0  0  0  0
   -6.9966    2.9412   -1.0629 H   0  0  0  0  0  0  0  0  0  0  0  0
  1 17  1  0  0  0  0
  1 19  1  0  0  0  0
  2  8  1  0  0  0  0
  2 11  1  0  0  0  0
  3 22  1  0  0  0  0
  3 38  1  0  0  0  0
  4 22  2  0  0  0  0
  5 17  2  0  0  0  0
  5 18  1  0  0  0  0
  6 21  3  0  0  0  0
  7  8  1  0  0  0  0
  7  9  1  0  0  0  0
  7 10  1  0  0  0  0
  7 23  1  0  0  0  0
  8 24  1  0  0  0  0
  8 25  1  0  0  0  0
  9 26  1  0  0  0  0
  9 27  1  0  0  0  0
  9 28  1  0  0  0  0
 10 29  1  0  0  0  0
 10 30  1  0  0  0  0
 10 31  1  0  0  0  0
 11 13  2  0  0  0  0
 11 14  1  0  0  0  0
 12 15  2  0  0  0  0
 12 16  1  0  0  0  0
 12 17  1  0  0  0  0
 13 15  1  0  0  0  0
 13 21  1  0  0  0  0
 14 16  2  0  0  0  0
 14 32  1  0  0  0  0
 15 33  1  0  0  0  0
 16 34  1  0  0  0  0
 18 19  2  0  0  0  0
 18 20  1  0  0  0  0
 19 22  1  0  0  0  0
 20 35  1  0  0  0  0
 20 36  1  0  0  0  0
 20 37  1  0  0  0  0
M  END
