DB04840
 OpenBabel07062211533D

 26 27  0  0  0  0  0  0  0  0999 V2000
   -1.4646   -0.1323    0.1416 N   0  0  0  0  0  0  0  0  0  0  0  0
   -3.2724    1.2489   -0.0401 N   0  0  0  0  0  0  0  0  0  0  0  0
   -3.3781   -0.9239   -0.9348 N   0  0  0  0  0  0  0  0  0  0  0  0
    0.2733   -1.8286   -0.0047 C   0  0  0  0  0  0  0  0  0  0  0  0
   -0.9968   -1.3895    0.7166 C   0  0  0  0  0  0  0  0  0  0  0  0
   -0.5497    1.0065    0.2384 C   0  0  0  0  0  0  0  0  0  0  0  0
    1.2992   -0.7264   -0.0347 C   0  0  0  0  0  0  0  0  0  0  0  0
    0.9004    0.6194    0.0582 C   0  0  0  0  0  0  0  0  0  0  0  0
    2.6542   -1.0384   -0.2102 C   0  0  0  0  0  0  0  0  0  0  0  0
    1.8734    1.6286    0.0055 C   0  0  0  0  0  0  0  0  0  0  0  0
   -2.7331    0.0179   -0.3072 C   0  0  0  0  0  0  0  0  0  0  0  0
    3.6107   -0.0252   -0.2660 C   0  0  0  0  0  0  0  0  0  0  0  0
    3.2209    1.3071   -0.1558 C   0  0  0  0  0  0  0  0  0  0  0  0
    0.0387   -2.1079   -1.0393 H   0  0  0  0  0  0  0  0  0  0  0  0
    0.6810   -2.7124    0.4998 H   0  0  0  0  0  0  0  0  0  0  0  0
   -1.7508   -2.1815    0.6418 H   0  0  0  0  0  0  0  0  0  0  0  0
   -0.7998   -1.2423    1.7863 H   0  0  0  0  0  0  0  0  0  0  0  0
   -0.6649    1.4777    1.2221 H   0  0  0  0  0  0  0  0  0  0  0  0
   -0.7850    1.7467   -0.5372 H   0  0  0  0  0  0  0  0  0  0  0  0
    2.9714   -2.0741   -0.3028 H   0  0  0  0  0  0  0  0  0  0  0  0
    1.5831    2.6733    0.0876 H   0  0  0  0  0  0  0  0  0  0  0  0
    4.6594   -0.2754   -0.3971 H   0  0  0  0  0  0  0  0  0  0  0  0
    3.9657    2.0964   -0.1980 H   0  0  0  0  0  0  0  0  0  0  0  0
   -4.2146    1.4771   -0.3392 H   0  0  0  0  0  0  0  0  0  0  0  0
   -2.8078    1.9357    0.5426 H   0  0  0  0  0  0  0  0  0  0  0  0
   -4.3138   -0.5774   -1.1733 H   0  0  0  0  0  0  0  0  0  0  0  0
  1  5  1  0  0  0  0
  1  6  1  0  0  0  0
  1 11  1  0  0  0  0
  2 11  1  0  0  0  0
  2 24  1  0  0  0  0
  2 25  1  0  0  0  0
  3 11  2  0  0  0  0
  3 26  1  0  0  0  0
  4  5  1  0  0  0  0
  4  7  1  0  0  0  0
  4 14  1  0  0  0  0
  4 15  1  0  0  0  0
  5 16  1  0  0  0  0
  5 17  1  0  0  0  0
  6  8  1  0  0  0  0
  6 18  1  0  0  0  0
  6 19  1  0  0  0  0
  7  8  2  0  0  0  0
  7  9  1  0  0  0  0
  8 10  1  0  0  0  0
  9 12  2  0  0  0  0
  9 20  1  0  0  0  0
 10 13  2  0  0  0  0
 10 21  1  0  0  0  0
 12 13  1  0  0  0  0
 12 22  1  0  0  0  0
 13 23  1  0  0  0  0
M  END
