DB04839
 OpenBabel07062211533D

 58 62  0  0  1  0  0  0  0  0999 V2000
    3.4236   -3.4855    1.8932 Cl  0  0  0  0  0  0  0  0  0  0  0  0
   -3.0361    0.4931    1.0803 O   0  0  0  0  0  0  0  0  0  0  0  0
    6.6139    0.6335    1.5977 O   0  0  0  0  0  0  0  0  0  0  0  0
   -4.9776   -0.4588   -1.3600 O   0  0  0  0  0  0  0  0  0  0  0  0
   -5.1816   -0.2885    1.4308 O   0  0  0  0  0  0  0  0  0  0  0  0
    2.9415    0.0079   -0.3509 C   0  0  1  0  0  0  0  0  0  0  0  0
    1.3919    0.1112   -0.1228 C   0  0  2  0  0  0  0  0  0  0  0  0
    3.5476    1.4086   -0.3119 C   0  0  2  0  0  0  0  0  0  0  0  0
   -1.5328   -0.1517   -0.7482 C   0  0  2  0  0  0  0  0  0  0  0  0
   -0.7614   -1.1175    0.1910 C   0  0  2  0  0  0  0  0  0  0  0  0
    0.7077   -1.2852   -0.2209 C   0  0  2  0  0  0  0  0  0  0  0  0
    4.8555    1.6207    0.3905 C   0  0  1  0  0  0  0  0  0  0  0  0
    3.5964    2.2431    0.9427 C   0  0  0  0  0  0  0  0  0  0  0  0
    0.6511    1.1498   -1.0030 C   0  0  0  0  0  0  0  0  0  0  0  0
   -0.8537    1.2275   -0.6741 C   0  0  0  0  0  0  0  0  0  0  0  0
   -2.9465   -0.2648   -0.1229 C   0  0  1  0  0  0  0  0  0  0  0  0
   -1.6672   -2.3456    0.2476 C   0  0  0  0  0  0  0  0  0  0  0  0
    3.5236   -0.9601    0.7144 C   0  0  0  0  0  0  0  0  0  0  0  0
   -3.0971   -1.7679    0.2025 C   0  0  0  0  0  0  0  0  0  0  0  0
    3.2863   -0.5798   -1.7464 C   0  0  0  0  0  0  0  0  0  0  0  0
    1.4524   -2.3092    0.5917 C   0  0  0  0  0  0  0  0  0  0  0  0
   -1.5660   -0.6246   -2.2297 C   0  0  0  0  0  0  0  0  0  0  0  0
    5.4856    0.5163    1.1358 C   0  0  0  0  0  0  0  0  0  0  0  0
    2.7200   -2.1567    1.0117 C   0  0  0  0  0  0  0  0  0  0  0  0
    4.6874   -0.7132    1.3473 C   0  0  0  0  0  0  0  0  0  0  0  0
   -4.0577    0.2633   -0.9788 C   0  0  0  0  0  0  0  0  0  0  0  0
   -3.9942    1.7210   -1.3468 C   0  0  0  0  0  0  0  0  0  0  0  0
   -4.2163    0.3874    1.7603 C   0  0  0  0  0  0  0  0  0  0  0  0
   -4.1665    1.2326    2.9970 C   0  0  0  0  0  0  0  0  0  0  0  0
    1.2580    0.4681    0.9125 H   0  0  0  0  0  0  0  0  0  0  0  0
    3.3958    1.9553   -1.2381 H   0  0  0  0  0  0  0  0  0  0  0  0
   -0.7581   -0.6956    1.2098 H   0  0  0  0  0  0  0  0  0  0  0  0
    0.7432   -1.6475   -1.2540 H   0  0  0  0  0  0  0  0  0  0  0  0
    5.5533    2.2918   -0.1025 H   0  0  0  0  0  0  0  0  0  0  0  0
    3.1693    1.8442    1.8543 H   0  0  0  0  0  0  0  0  0  0  0  0
    3.4784    3.3152    0.8363 H   0  0  0  0  0  0  0  0  0  0  0  0
    0.7896    0.9201   -2.0642 H   0  0  0  0  0  0  0  0  0  0  0  0
    1.0717    2.1491   -0.8453 H   0  0  0  0  0  0  0  0  0  0  0  0
   -0.9594    1.6561    0.3301 H   0  0  0  0  0  0  0  0  0  0  0  0
   -1.3144    1.9382   -1.3662 H   0  0  0  0  0  0  0  0  0  0  0  0
   -1.5062   -2.9289    1.1602 H   0  0  0  0  0  0  0  0  0  0  0  0
   -1.4950   -3.0128   -0.6046 H   0  0  0  0  0  0  0  0  0  0  0  0
   -3.6620   -2.3183   -0.5584 H   0  0  0  0  0  0  0  0  0  0  0  0
   -3.5657   -1.9816    1.1671 H   0  0  0  0  0  0  0  0  0  0  0  0
    4.3720   -0.5838   -1.9075 H   0  0  0  0  0  0  0  0  0  0  0  0
    2.9416   -1.6105   -1.8760 H   0  0  0  0  0  0  0  0  0  0  0  0
    2.8510    0.0193   -2.5534 H   0  0  0  0  0  0  0  0  0  0  0  0
    0.9303   -3.2406    0.7990 H   0  0  0  0  0  0  0  0  0  0  0  0
   -0.5684   -0.7515   -2.6573 H   0  0  0  0  0  0  0  0  0  0  0  0
   -2.0860   -1.5796   -2.3545 H   0  0  0  0  0  0  0  0  0  0  0  0
   -2.0785    0.1029   -2.8668 H   0  0  0  0  0  0  0  0  0  0  0  0
    5.1111   -1.3909    2.0812 H   0  0  0  0  0  0  0  0  0  0  0  0
   -3.5831    2.3279   -0.5376 H   0  0  0  0  0  0  0  0  0  0  0  0
   -3.4123    1.8580   -2.2594 H   0  0  0  0  0  0  0  0  0  0  0  0
   -5.0127    2.0778   -1.5309 H   0  0  0  0  0  0  0  0  0  0  0  0
   -4.0181    2.2801    2.7230 H   0  0  0  0  0  0  0  0  0  0  0  0
   -3.3608    0.8867    3.6492 H   0  0  0  0  0  0  0  0  0  0  0  0
   -5.1141    1.1438    3.5356 H   0  0  0  0  0  0  0  0  0  0  0  0
  1 24  1  0  0  0  0
  2 16  1  0  0  0  0
  2 28  1  0  0  0  0
  3 23  2  0  0  0  0
  4 26  2  0  0  0  0
  5 28  2  0  0  0  0
  6  7  1  1  0  0  0
  6 18  1  0  0  0  0
  6 20  1  0  0  0  0
  7 11  1  6  0  0  0
  7 14  1  0  0  0  0
  7 30  1  0  0  0  0
  8  6  1  1  0  0  0
  8 13  1  0  0  0  0
  8 31  1  0  0  0  0
  9 10  1  1  0  0  0
  9 15  1  0  0  0  0
  9 22  1  0  0  0  0
 10 11  1  6  0  0  0
 10 17  1  0  0  0  0
 10 32  1  0  0  0  0
 11 21  1  0  0  0  0
 11 33  1  6  0  0  0
 12  8  1  6  0  0  0
 12 13  1  0  0  0  0
 12 23  1  0  0  0  0
 12 34  1  0  0  0  0
 13 35  1  0  0  0  0
 13 36  1  0  0  0  0
 14 15  1  0  0  0  0
 14 37  1  0  0  0  0
 14 38  1  0  0  0  0
 15 39  1  0  0  0  0
 15 40  1  0  0  0  0
 16  9  1  6  0  0  0
 16 19  1  0  0  0  0
 16 26  1  0  0  0  0
 17 19  1  0  0  0  0
 17 41  1  0  0  0  0
 17 42  1  0  0  0  0
 18 24  1  0  0  0  0
 18 25  2  0  0  0  0
 19 43  1  0  0  0  0
 19 44  1  0  0  0  0
 20 45  1  0  0  0  0
 20 46  1  0  0  0  0
 20 47  1  0  0  0  0
 21 24  2  0  0  0  0
 21 48  1  0  0  0  0
 22 49  1  0  0  0  0
 22 50  1  0  0  0  0
 22 51  1  0  0  0  0
 23 25  1  0  0  0  0
 25 52  1  0  0  0  0
 26 27  1  0  0  0  0
 27 53  1  0  0  0  0
 27 54  1  0  0  0  0
 27 55  1  0  0  0  0
 28 29  1  0  0  0  0
 29 56  1  0  0  0  0
 29 57  1  0  0  0  0
 29 58  1  0  0  0  0
M  END
