DB04825
 OpenBabel07062211533D

 52 54  0  0  1  0  0  0  0  0999 V2000
   -1.2646    1.5058    0.2724 N   0  0  0  0  0  0  0  0  0  0  0  0
    1.4918    0.3762    0.0796 C   0  0  0  0  0  0  0  0  0  0  0  0
    1.1215    1.8654   -0.1484 C   0  0  0  0  0  0  0  0  0  0  0  0
   -0.3058    2.0413   -0.6793 C   0  0  0  0  0  0  0  0  0  0  0  0
   -2.6335    1.6711   -0.2254 C   0  0  1  0  0  0  0  0  0  0  0  0
    1.3426   -0.4775   -1.1762 C   0  0  0  0  0  0  0  0  0  0  0  0
    2.8586    0.1773    0.7224 C   0  0  0  0  0  0  0  0  0  0  0  0
   -3.6212    1.0178    0.7585 C   0  0  0  0  0  0  0  0  0  0  0  0
   -2.8987    3.1647   -0.4163 C   0  0  0  0  0  0  0  0  0  0  0  0
   -3.3645   -0.4528    0.9858 C   0  0  0  0  0  0  0  0  0  0  0  0
    0.1317   -1.0872   -1.4235 C   0  0  0  0  0  0  0  0  0  0  0  0
    3.0623   -0.9259    1.5246 C   0  0  0  0  0  0  0  0  0  0  0  0
    2.4235   -0.6095   -2.0208 C   0  0  0  0  0  0  0  0  0  0  0  0
    3.8490    1.1065    0.4815 C   0  0  0  0  0  0  0  0  0  0  0  0
   -3.9851   -1.3845    0.1690 C   0  0  0  0  0  0  0  0  0  0  0  0
   -2.5129   -0.8437    2.0067 C   0  0  0  0  0  0  0  0  0  0  0  0
   -0.0049   -1.8675   -2.5715 C   0  0  0  0  0  0  0  0  0  0  0  0
    4.3139   -1.1084    2.1131 C   0  0  0  0  0  0  0  0  0  0  0  0
    2.2866   -1.3898   -3.1690 C   0  0  0  0  0  0  0  0  0  0  0  0
    5.1005    0.9238    1.0700 C   0  0  0  0  0  0  0  0  0  0  0  0
    1.0724   -2.0187   -3.4442 C   0  0  0  0  0  0  0  0  0  0  0  0
    5.3328   -0.1836    1.8857 C   0  0  0  0  0  0  0  0  0  0  0  0
   -3.7480   -2.7429    0.3786 C   0  0  0  0  0  0  0  0  0  0  0  0
   -2.2757   -2.2023    2.2162 C   0  0  0  0  0  0  0  0  0  0  0  0
   -2.8933   -3.1518    1.4021 C   0  0  0  0  0  0  0  0  0  0  0  0
    0.7791   -0.0089    0.8248 H   0  0  0  0  0  0  0  0  0  0  0  0
    1.7855    2.3219   -0.8927 H   0  0  0  0  0  0  0  0  0  0  0  0
    1.2435    2.4314    0.7848 H   0  0  0  0  0  0  0  0  0  0  0  0
   -0.4155    1.5878   -1.6699 H   0  0  0  0  0  0  0  0  0  0  0  0
   -0.4277    3.1216   -0.8106 H   0  0  0  0  0  0  0  0  0  0  0  0
   -2.7363    1.1634   -1.1935 H   0  0  0  0  0  0  0  0  0  0  0  0
   -1.1596    1.9727    1.1727 H   0  0  0  0  0  0  0  0  0  0  0  0
   -4.6467    1.1498    0.3880 H   0  0  0  0  0  0  0  0  0  0  0  0
   -3.5970    1.5419    1.7243 H   0  0  0  0  0  0  0  0  0  0  0  0
   -2.4041    3.5712   -1.3040 H   0  0  0  0  0  0  0  0  0  0  0  0
   -2.6010    3.7532    0.4591 H   0  0  0  0  0  0  0  0  0  0  0  0
   -3.9714    3.3353   -0.5661 H   0  0  0  0  0  0  0  0  0  0  0  0
   -0.7091   -0.9985   -0.7458 H   0  0  0  0  0  0  0  0  0  0  0  0
    2.2757   -1.6521    1.7060 H   0  0  0  0  0  0  0  0  0  0  0  0
    3.3749   -0.1176   -1.8585 H   0  0  0  0  0  0  0  0  0  0  0  0
    3.7179    1.9712   -0.1576 H   0  0  0  0  0  0  0  0  0  0  0  0
   -4.6499   -1.0755   -0.6326 H   0  0  0  0  0  0  0  0  0  0  0  0
   -2.0298   -0.1146    2.6507 H   0  0  0  0  0  0  0  0  0  0  0  0
   -0.9492   -2.3609   -2.7830 H   0  0  0  0  0  0  0  0  0  0  0  0
    4.4951   -1.9710    2.7476 H   0  0  0  0  0  0  0  0  0  0  0  0
    3.1234   -1.5033   -3.8520 H   0  0  0  0  0  0  0  0  0  0  0  0
    5.8957    1.6414    0.8901 H   0  0  0  0  0  0  0  0  0  0  0  0
    0.9658   -2.6260   -4.3382 H   0  0  0  0  0  0  0  0  0  0  0  0
    6.3076   -0.3263    2.3427 H   0  0  0  0  0  0  0  0  0  0  0  0
   -4.2277   -3.4821   -0.2561 H   0  0  0  0  0  0  0  0  0  0  0  0
   -1.6103   -2.5208    3.0133 H   0  0  0  0  0  0  0  0  0  0  0  0
   -2.7081   -4.2094    1.5649 H   0  0  0  0  0  0  0  0  0  0  0  0
  1  4  1  0  0  0  0
  1  5  1  0  0  0  0
  1 32  1  0  0  0  0
  2  3  1  0  0  0  0
  2  6  1  0  0  0  0
  2  7  1  0  0  0  0
  2 26  1  0  0  0  0
  3  4  1  0  0  0  0
  3 27  1  0  0  0  0
  3 28  1  0  0  0  0
  4 29  1  0  0  0  0
  4 30  1  0  0  0  0
  5  8  1  0  0  0  0
  5  9  1  0  0  0  0
  5 31  1  6  0  0  0
  6 11  2  0  0  0  0
  6 13  1  0  0  0  0
  7 12  2  0  0  0  0
  7 14  1  0  0  0  0
  8 10  1  0  0  0  0
  8 33  1  0  0  0  0
  8 34  1  0  0  0  0
  9 35  1  0  0  0  0
  9 36  1  0  0  0  0
  9 37  1  0  0  0  0
 10 15  2  0  0  0  0
 10 16  1  0  0  0  0
 11 17  1  0  0  0  0
 11 38  1  0  0  0  0
 12 18  1  0  0  0  0
 12 39  1  0  0  0  0
 13 19  2  0  0  0  0
 13 40  1  0  0  0  0
 14 20  2  0  0  0  0
 14 41  1  0  0  0  0
 15 23  1  0  0  0  0
 15 42  1  0  0  0  0
 16 24  2  0  0  0  0
 16 43  1  0  0  0  0
 17 21  2  0  0  0  0
 17 44  1  0  0  0  0
 18 22  2  0  0  0  0
 18 45  1  0  0  0  0
 19 21  1  0  0  0  0
 19 46  1  0  0  0  0
 20 22  1  0  0  0  0
 20 47  1  0  0  0  0
 21 48  1  0  0  0  0
 22 49  1  0  0  0  0
 23 25  2  0  0  0  0
 23 50  1  0  0  0  0
 24 25  1  0  0  0  0
 24 51  1  0  0  0  0
 25 52  1  0  0  0  0
M  END
