DB04898
 OpenBabel07062211533D

 69 71  0  0  1  0  0  0  0  0999 V2000
    1.2923   -1.1593   -1.3531 O   0  0  0  0  0  0  0  0  0  0  0  0
   -0.8444   -3.3208    1.9919 O   0  0  0  0  0  0  0  0  0  0  0  0
   -1.8131    2.2264    1.9783 O   0  0  0  0  0  0  0  0  0  0  0  0
   -1.0679    3.0434   -0.0453 O   0  0  0  0  0  0  0  0  0  0  0  0
   -5.3953    2.5846   -3.1481 O   0  0  0  0  0  0  0  0  0  0  0  0
    1.7396   -1.8521    0.7897 N   0  0  0  0  0  0  0  0  0  0  0  0
    1.0818    1.3704    0.0071 N   0  0  0  0  0  0  0  0  0  0  0  0
   -0.7465   -3.7856   -0.2731 N   0  0  0  0  0  0  0  0  0  0  0  0
   -6.0071    1.2538   -1.0051 N   0  0  0  0  0  0  0  0  0  0  0  0
   -4.6287    1.4337   -2.9405 N   0  0  0  0  0  0  0  0  0  0  0  0
    3.3691    0.8494   -0.6973 C   0  0  0  0  0  0  0  0  0  0  0  0
    2.1868    0.4413    0.1794 C   0  0  2  0  0  0  0  0  0  0  0  0
    3.8529    2.2595   -0.3325 C   0  0  0  0  0  0  0  0  0  0  0  0
    4.5111   -0.1685   -0.5754 C   0  0  0  0  0  0  0  0  0  0  0  0
    5.0691    2.6698   -1.1597 C   0  0  0  0  0  0  0  0  0  0  0  0
    5.7263    0.2458   -1.4020 C   0  0  0  0  0  0  0  0  0  0  0  0
    1.3326   -3.2388    0.8924 C   0  0  1  0  0  0  0  0  0  0  0  0
    6.1988    1.6512   -1.0429 C   0  0  0  0  0  0  0  0  0  0  0  0
    2.1805   -1.7429    2.1659 C   0  0  0  0  0  0  0  0  0  0  0  0
    2.1126   -3.2739    2.2123 C   0  0  0  0  0  0  0  0  0  0  0  0
    1.6964   -0.9262   -0.2149 C   0  0  0  0  0  0  0  0  0  0  0  0
   -0.1898   -3.4491    0.9521 C   0  0  0  0  0  0  0  0  0  0  0  0
    0.1652    1.3094    1.1387 C   0  0  0  0  0  0  0  0  0  0  0  0
   -0.9518    2.2990    0.9188 C   0  0  0  0  0  0  0  0  0  0  0  0
   -2.1597   -4.0229   -0.4622 C   0  0  0  0  0  0  0  0  0  0  0  0
   -2.8974   -2.7653   -0.8207 C   0  0  0  0  0  0  0  0  0  0  0  0
   -3.0460   -2.4022   -2.1594 C   0  0  0  0  0  0  0  0  0  0  0  0
   -3.4331   -1.9597    0.1841 C   0  0  0  0  0  0  0  0  0  0  0  0
   -2.9365    3.1115    1.9218 C   0  0  0  0  0  0  0  0  0  0  0  0
   -3.7304   -1.2335   -2.4930 C   0  0  0  0  0  0  0  0  0  0  0  0
   -4.1174   -0.7911   -0.1496 C   0  0  0  0  0  0  0  0  0  0  0  0
   -4.2661   -0.4279   -1.4881 C   0  0  0  0  0  0  0  0  0  0  0  0
   -3.7862    2.9095    3.1583 C   0  0  0  0  0  0  0  0  0  0  0  0
   -4.9797    0.7905   -1.8364 C   0  0  0  0  0  0  0  0  0  0  0  0
    3.0526    0.8641   -1.7510 H   0  0  0  0  0  0  0  0  0  0  0  0
    2.5290    0.4813    1.2175 H   0  0  0  0  0  0  0  0  0  0  0  0
    4.1132    2.3028    0.7330 H   0  0  0  0  0  0  0  0  0  0  0  0
    3.0620    3.0003   -0.4972 H   0  0  0  0  0  0  0  0  0  0  0  0
    4.1930   -1.1607   -0.9140 H   0  0  0  0  0  0  0  0  0  0  0  0
    4.8109   -0.2709    0.4755 H   0  0  0  0  0  0  0  0  0  0  0  0
    1.8113   -3.8573    0.1222 H   0  0  0  0  0  0  0  0  0  0  0  0
    4.7769    2.7722   -2.2121 H   0  0  0  0  0  0  0  0  0  0  0  0
    5.4244    3.6527   -0.8299 H   0  0  0  0  0  0  0  0  0  0  0  0
    6.5418   -0.4686   -1.2417 H   0  0  0  0  0  0  0  0  0  0  0  0
    5.4728    0.2070   -2.4685 H   0  0  0  0  0  0  0  0  0  0  0  0
    6.5879    1.6542   -0.0173 H   0  0  0  0  0  0  0  0  0  0  0  0
    7.0266    1.9413   -1.6996 H   0  0  0  0  0  0  0  0  0  0  0  0
    3.1868   -1.3408    2.3029 H   0  0  0  0  0  0  0  0  0  0  0  0
    1.4613   -1.2234    2.8050 H   0  0  0  0  0  0  0  0  0  0  0  0
    1.5878   -3.6852    3.0797 H   0  0  0  0  0  0  0  0  0  0  0  0
    3.0894   -3.7661    2.1347 H   0  0  0  0  0  0  0  0  0  0  0  0
    0.5927    1.1938   -0.8696 H   0  0  0  0  0  0  0  0  0  0  0  0
   -0.2828    0.3145    1.2340 H   0  0  0  0  0  0  0  0  0  0  0  0
    0.6792    1.5841    2.0663 H   0  0  0  0  0  0  0  0  0  0  0  0
   -0.1432   -3.8501   -1.0879 H   0  0  0  0  0  0  0  0  0  0  0  0
   -2.2642   -4.7700   -1.2571 H   0  0  0  0  0  0  0  0  0  0  0  0
   -2.5810   -4.4663    0.4478 H   0  0  0  0  0  0  0  0  0  0  0  0
   -2.6327   -3.0215   -2.9511 H   0  0  0  0  0  0  0  0  0  0  0  0
   -3.3238   -2.2292    1.2310 H   0  0  0  0  0  0  0  0  0  0  0  0
   -3.5288    2.8922    1.0262 H   0  0  0  0  0  0  0  0  0  0  0  0
   -2.5833    4.1479    1.8801 H   0  0  0  0  0  0  0  0  0  0  0  0
   -3.8391   -0.9773   -3.5436 H   0  0  0  0  0  0  0  0  0  0  0  0
   -4.5061   -0.1751    0.6566 H   0  0  0  0  0  0  0  0  0  0  0  0
   -4.6558    3.5725    3.1478 H   0  0  0  0  0  0  0  0  0  0  0  0
   -3.2022    3.1056    4.0636 H   0  0  0  0  0  0  0  0  0  0  0  0
   -4.1328    1.8728    3.2216 H   0  0  0  0  0  0  0  0  0  0  0  0
   -6.5077    2.1056   -1.2352 H   0  0  0  0  0  0  0  0  0  0  0  0
   -6.3179    0.7441   -0.1854 H   0  0  0  0  0  0  0  0  0  0  0  0
   -5.0163    2.9242   -3.9763 H   0  0  0  0  0  0  0  0  0  0  0  0
  1 21  2  0  0  0  0
  2 22  2  0  0  0  0
  3 24  1  0  0  0  0
  3 29  1  0  0  0  0
  4 24  2  0  0  0  0
  5 10  1  0  0  0  0
  5 69  1  0  0  0  0
  6 17  1  0  0  0  0
  6 19  1  0  0  0  0
  6 21  1  0  0  0  0
  7 12  1  0  0  0  0
  7 23  1  0  0  0  0
  7 52  1  0  0  0  0
  8 22  1  0  0  0  0
  8 25  1  0  0  0  0
  8 55  1  0  0  0  0
  9 34  1  0  0  0  0
  9 67  1  0  0  0  0
  9 68  1  0  0  0  0
 10 34  2  0  0  0  0
 11 12  1  0  0  0  0
 11 13  1  0  0  0  0
 11 14  1  0  0  0  0
 11 35  1  0  0  0  0
 12 21  1  0  0  0  0
 12 36  1  1  0  0  0
 13 15  1  0  0  0  0
 13 37  1  0  0  0  0
 13 38  1  0  0  0  0
 14 16  1  0  0  0  0
 14 39  1  0  0  0  0
 14 40  1  0  0  0  0
 15 18  1  0  0  0  0
 15 42  1  0  0  0  0
 15 43  1  0  0  0  0
 16 18  1  0  0  0  0
 16 44  1  0  0  0  0
 16 45  1  0  0  0  0
 17 20  1  0  0  0  0
 17 22  1  0  0  0  0
 17 41  1  6  0  0  0
 18 46  1  0  0  0  0
 18 47  1  0  0  0  0
 19 20  1  0  0  0  0
 19 48  1  0  0  0  0
 19 49  1  0  0  0  0
 20 50  1  0  0  0  0
 20 51  1  0  0  0  0
 23 24  1  0  0  0  0
 23 53  1  0  0  0  0
 23 54  1  0  0  0  0
 25 26  1  0  0  0  0
 25 56  1  0  0  0  0
 25 57  1  0  0  0  0
 26 27  2  0  0  0  0
 26 28  1  0  0  0  0
 27 30  1  0  0  0  0
 27 58  1  0  0  0  0
 28 31  2  0  0  0  0
 28 59  1  0  0  0  0
 29 33  1  0  0  0  0
 29 60  1  0  0  0  0
 29 61  1  0  0  0  0
 30 32  2  0  0  0  0
 30 62  1  0  0  0  0
 31 32  1  0  0  0  0
 31 63  1  0  0  0  0
 32 34  1  0  0  0  0
 33 64  1  0  0  0  0
 33 65  1  0  0  0  0
 33 66  1  0  0  0  0
M  END
