DB04827
 OpenBabel07062211533D

 13 12  0  0  0  0  0  0  0  0999 V2000
    0.3138    0.2991   -0.0001 O   0  0  0  0  0  0  0  0  0  0  0  0
    1.6002   -1.6100   -0.0000 O   0  0  0  0  0  0  0  0  0  0  0  0
    2.5539    0.4823    0.0001 N   0  0  0  0  0  0  0  0  0  0  0  0
   -0.8731   -0.5023   -0.0000 C   0  0  0  0  0  0  0  0  0  0  0  0
   -2.0826    0.4079   -0.0000 C   0  0  0  0  0  0  0  0  0  0  0  0
    1.4922   -0.3883    0.0000 C   0  0  0  0  0  0  0  0  0  0  0  0
   -0.8859   -1.1352   -0.8943 H   0  0  0  0  0  0  0  0  0  0  0  0
   -0.8860   -1.1352    0.8943 H   0  0  0  0  0  0  0  0  0  0  0  0
   -3.0093   -0.1730    0.0001 H   0  0  0  0  0  0  0  0  0  0  0  0
   -2.0741    1.0601    0.8795 H   0  0  0  0  0  0  0  0  0  0  0  0
   -2.0742    1.0601   -0.8795 H   0  0  0  0  0  0  0  0  0  0  0  0
    2.4134    1.4869   -0.0000 H   0  0  0  0  0  0  0  0  0  0  0  0
    3.5116    0.1476   -0.0000 H   0  0  0  0  0  0  0  0  0  0  0  0
  1  4  1  0  0  0  0
  1  6  1  0  0  0  0
  2  6  2  0  0  0  0
  3  6  1  0  0  0  0
  3 12  1  0  0  0  0
  3 13  1  0  0  0  0
  4  5  1  0  0  0  0
  4  7  1  0  0  0  0
  4  8  1  0  0  0  0
  5  9  1  0  0  0  0
  5 10  1  0  0  0  0
  5 11  1  0  0  0  0
M  END
