DB04841
 OpenBabel07062211533D

 56 59  0  0  0  0  0  0  0  0999 V2000
    3.4412   -5.6427    0.6722 F   0  0  0  0  0  0  0  0  0  0  0  0
    7.2483    2.8537    0.6115 F   0  0  0  0  0  0  0  0  0  0  0  0
    1.4814    0.3330    0.0080 N   0  0  0  0  0  0  0  0  0  0  0  0
   -1.1041    1.6194   -0.1306 N   0  0  0  0  0  0  0  0  0  0  0  0
    1.3580    1.7662   -0.2853 C   0  0  0  0  0  0  0  0  0  0  0  0
    0.2944   -0.3903   -0.4643 C   0  0  0  0  0  0  0  0  0  0  0  0
    2.6963   -0.2165   -0.5901 C   0  0  0  0  0  0  0  0  0  0  0  0
    0.0833    2.3434    0.3398 C   0  0  0  0  0  0  0  0  0  0  0  0
   -0.9802    0.1860    0.1618 C   0  0  0  0  0  0  0  0  0  0  0  0
   -2.3185    2.1684    0.4695 C   0  0  0  0  0  0  0  0  0  0  0  0
    2.8975   -1.6857   -0.2490 C   0  0  0  0  0  0  0  0  0  0  0  0
    3.9290    0.6142   -0.2655 C   0  0  0  0  0  0  0  0  0  0  0  0
   -3.5479    1.4874   -0.0547 C   0  0  0  0  0  0  0  0  0  0  0  0
    3.5567   -2.4960   -1.1507 C   0  0  0  0  0  0  0  0  0  0  0  0
    4.2822    1.6440   -1.1135 C   0  0  0  0  0  0  0  0  0  0  0  0
    2.4151   -2.1635    0.9524 C   0  0  0  0  0  0  0  0  0  0  0  0
    4.6564    0.3133    0.8680 C   0  0  0  0  0  0  0  0  0  0  0  0
    3.7414   -3.8427   -0.8372 C   0  0  0  0  0  0  0  0  0  0  0  0
    5.4120    2.4058   -0.8152 C   0  0  0  0  0  0  0  0  0  0  0  0
    2.6000   -3.5099    1.2658 C   0  0  0  0  0  0  0  0  0  0  0  0
    5.7859    1.0754    1.1664 C   0  0  0  0  0  0  0  0  0  0  0  0
   -4.4174    0.8317    0.7304 C   0  0  0  0  0  0  0  0  0  0  0  0
    3.2631   -4.3497    0.3711 C   0  0  0  0  0  0  0  0  0  0  0  0
    6.1638    2.1216    0.3248 C   0  0  0  0  0  0  0  0  0  0  0  0
   -5.6445    0.1631    0.2663 C   0  0  0  0  0  0  0  0  0  0  0  0
   -5.7668   -0.1806   -1.0710 C   0  0  0  0  0  0  0  0  0  0  0  0
   -6.6546   -0.1108    1.1749 C   0  0  0  0  0  0  0  0  0  0  0  0
   -6.9289   -0.8145   -1.5107 C   0  0  0  0  0  0  0  0  0  0  0  0
   -7.8167   -0.7448    0.7352 C   0  0  0  0  0  0  0  0  0  0  0  0
   -7.9538   -1.0965   -0.6076 C   0  0  0  0  0  0  0  0  0  0  0  0
    1.3480    1.9564   -1.3669 H   0  0  0  0  0  0  0  0  0  0  0  0
    2.1683    2.3460    0.1668 H   0  0  0  0  0  0  0  0  0  0  0  0
    0.3035   -1.4557   -0.2191 H   0  0  0  0  0  0  0  0  0  0  0  0
    0.2150   -0.3250   -1.5591 H   0  0  0  0  0  0  0  0  0  0  0  0
    2.5722   -0.1813   -1.6851 H   0  0  0  0  0  0  0  0  0  0  0  0
    0.1581    2.3022    1.4351 H   0  0  0  0  0  0  0  0  0  0  0  0
    0.0081    3.4006    0.0574 H   0  0  0  0  0  0  0  0  0  0  0  0
   -1.8189   -0.3789   -0.2609 H   0  0  0  0  0  0  0  0  0  0  0  0
   -0.9729    0.0037    1.2453 H   0  0  0  0  0  0  0  0  0  0  0  0
   -2.4036    3.2322    0.2140 H   0  0  0  0  0  0  0  0  0  0  0  0
   -2.2755    2.1096    1.5653 H   0  0  0  0  0  0  0  0  0  0  0  0
   -3.7136    1.5895   -1.1233 H   0  0  0  0  0  0  0  0  0  0  0  0
    3.9341   -2.1101   -2.0929 H   0  0  0  0  0  0  0  0  0  0  0  0
    3.7156    1.8683   -2.0120 H   0  0  0  0  0  0  0  0  0  0  0  0
    1.9203   -1.5333    1.6852 H   0  0  0  0  0  0  0  0  0  0  0  0
    4.3868   -0.4729    1.5627 H   0  0  0  0  0  0  0  0  0  0  0  0
    4.2582   -4.4966   -1.5334 H   0  0  0  0  0  0  0  0  0  0  0  0
    5.7081    3.2186   -1.4718 H   0  0  0  0  0  0  0  0  0  0  0  0
    2.2336   -3.9038    2.2092 H   0  0  0  0  0  0  0  0  0  0  0  0
    6.3688    0.8582    2.0567 H   0  0  0  0  0  0  0  0  0  0  0  0
   -4.2295    0.7822    1.8007 H   0  0  0  0  0  0  0  0  0  0  0  0
   -4.9865   -0.0013   -1.8038 H   0  0  0  0  0  0  0  0  0  0  0  0
   -6.5632    0.1581    2.2239 H   0  0  0  0  0  0  0  0  0  0  0  0
   -7.0342   -1.0934   -2.5552 H   0  0  0  0  0  0  0  0  0  0  0  0
   -8.6148   -0.9645    1.4382 H   0  0  0  0  0  0  0  0  0  0  0  0
   -8.8582   -1.5912   -0.9498 H   0  0  0  0  0  0  0  0  0  0  0  0
  1 23  1  0  0  0  0
  2 24  1  0  0  0  0
  3  5  1  0  0  0  0
  3  6  1  0  0  0  0
  3  7  1  0  0  0  0
  4  8  1  0  0  0  0
  4  9  1  0  0  0  0
  4 10  1  0  0  0  0
  5  8  1  0  0  0  0
  5 31  1  0  0  0  0
  5 32  1  0  0  0  0
  6  9  1  0  0  0  0
  6 33  1  0  0  0  0
  6 34  1  0  0  0  0
  7 11  1  0  0  0  0
  7 12  1  0  0  0  0
  7 35  1  0  0  0  0
  8 36  1  0  0  0  0
  8 37  1  0  0  0  0
  9 38  1  0  0  0  0
  9 39  1  0  0  0  0
 10 13  1  0  0  0  0
 10 40  1  0  0  0  0
 10 41  1  0  0  0  0
 11 14  2  0  0  0  0
 11 16  1  0  0  0  0
 12 15  2  0  0  0  0
 12 17  1  0  0  0  0
 13 22  2  0  0  0  0
 13 42  1  0  0  0  0
 14 18  1  0  0  0  0
 14 43  1  0  0  0  0
 15 19  1  0  0  0  0
 15 44  1  0  0  0  0
 16 20  2  0  0  0  0
 16 45  1  0  0  0  0
 17 21  2  0  0  0  0
 17 46  1  0  0  0  0
 18 23  2  0  0  0  0
 18 47  1  0  0  0  0
 19 24  2  0  0  0  0
 19 48  1  0  0  0  0
 20 23  1  0  0  0  0
 20 49  1  0  0  0  0
 21 24  1  0  0  0  0
 21 50  1  0  0  0  0
 22 25  1  0  0  0  0
 22 51  1  0  0  0  0
 25 26  2  0  0  0  0
 25 27  1  0  0  0  0
 26 28  1  0  0  0  0
 26 52  1  0  0  0  0
 27 29  2  0  0  0  0
 27 53  1  0  0  0  0
 28 30  2  0  0  0  0
 28 54  1  0  0  0  0
 29 30  1  0  0  0  0
 29 55  1  0  0  0  0
 30 56  1  0  0  0  0
M  END
