DB04930
 OpenBabel07062211533D

 46 48  0  0  1  0  0  0  0  0999 V2000
   -2.5654    4.3901    0.3505 Cl  0  0  0  0  0  0  0  0  0  0  0  0
   -2.6332    2.3312    2.4647 Cl  0  0  0  0  0  0  0  0  0  0  0  0
   -0.4296   -1.5844   -0.8316 O   0  0  0  0  0  0  0  0  0  0  0  0
   -2.1014   -2.7202   -1.9560 O   0  0  0  0  0  0  0  0  0  0  0  0
    4.1561    0.4137   -0.2131 O   0  0  0  0  0  0  0  0  0  0  0  0
   -3.4385   -0.5051    0.0747 C   0  0  0  0  0  0  0  0  0  0  0  0
   -2.1994    0.3404    0.0393 C   0  0  1  0  0  0  0  0  0  0  0  0
   -2.5333   -0.5503   -1.1145 C   0  0  1  0  0  0  0  0  0  0  0  0
   -4.7511    0.1965   -0.0266 C   0  0  0  0  0  0  0  0  0  0  0  0
   -3.4845   -1.7192    0.9419 C   0  0  0  0  0  0  0  0  0  0  0  0
   -2.2952    1.7800   -0.1507 C   0  0  0  0  0  0  0  0  0  0  0  0
   -1.6802   -1.7423   -1.3549 C   0  0  0  0  0  0  0  0  0  0  0  0
   -2.4770    2.7198    0.7894 C   0  0  0  0  0  0  0  0  0  0  0  0
    0.4590   -2.6799   -1.0143 C   0  0  0  0  0  0  0  0  0  0  0  0
    1.7756   -2.3588   -0.3920 C   0  0  0  0  0  0  0  0  0  0  0  0
    2.3571   -1.1074   -0.5962 C   0  0  0  0  0  0  0  0  0  0  0  0
    2.4255   -3.3098    0.3947 C   0  0  0  0  0  0  0  0  0  0  0  0
    3.5884   -0.8071   -0.0137 C   0  0  0  0  0  0  0  0  0  0  0  0
    3.6569   -3.0095    0.9771 C   0  0  0  0  0  0  0  0  0  0  0  0
    4.2384   -1.7581    0.7729 C   0  0  0  0  0  0  0  0  0  0  0  0
    3.3431    1.5285   -0.0955 C   0  0  0  0  0  0  0  0  0  0  0  0
    2.4690    1.6154    0.9730 C   0  0  0  0  0  0  0  0  0  0  0  0
    3.4259    2.5265   -1.0496 C   0  0  0  0  0  0  0  0  0  0  0  0
    1.6502    2.7384    1.0915 C   0  0  0  0  0  0  0  0  0  0  0  0
    2.6070    3.6494   -0.9311 C   0  0  0  0  0  0  0  0  0  0  0  0
    1.7191    3.7554    0.1394 C   0  0  0  0  0  0  0  0  0  0  0  0
   -1.3955    0.0508    0.7092 H   0  0  0  0  0  0  0  0  0  0  0  0
   -2.9012   -0.0926   -2.0284 H   0  0  0  0  0  0  0  0  0  0  0  0
   -5.0194    0.6632    0.9271 H   0  0  0  0  0  0  0  0  0  0  0  0
   -4.7720    0.9685   -0.8036 H   0  0  0  0  0  0  0  0  0  0  0  0
   -5.5431   -0.5179   -0.2790 H   0  0  0  0  0  0  0  0  0  0  0  0
   -3.9611   -1.4854    1.9005 H   0  0  0  0  0  0  0  0  0  0  0  0
   -4.0659   -2.5147    0.4633 H   0  0  0  0  0  0  0  0  0  0  0  0
   -2.4910   -2.1174    1.1747 H   0  0  0  0  0  0  0  0  0  0  0  0
   -2.1926    2.1204   -1.1808 H   0  0  0  0  0  0  0  0  0  0  0  0
    0.0191   -3.5721   -0.5526 H   0  0  0  0  0  0  0  0  0  0  0  0
    0.6041   -2.8689   -2.0848 H   0  0  0  0  0  0  0  0  0  0  0  0
    1.8571   -0.3853   -1.2375 H   0  0  0  0  0  0  0  0  0  0  0  0
    1.9854   -4.2893    0.5616 H   0  0  0  0  0  0  0  0  0  0  0  0
    4.1631   -3.7499    1.5894 H   0  0  0  0  0  0  0  0  0  0  0  0
    5.1975   -1.5298    1.2294 H   0  0  0  0  0  0  0  0  0  0  0  0
    2.4125    0.8484    1.7398 H   0  0  0  0  0  0  0  0  0  0  0  0
    4.1163    2.4451   -1.8837 H   0  0  0  0  0  0  0  0  0  0  0  0
    0.9618    2.8231    1.9272 H   0  0  0  0  0  0  0  0  0  0  0  0
    2.6604    4.4412   -1.6727 H   0  0  0  0  0  0  0  0  0  0  0  0
    1.0817    4.6297    0.2320 H   0  0  0  0  0  0  0  0  0  0  0  0
  1 13  1  0  0  0  0
  2 13  1  0  0  0  0
  3 12  1  0  0  0  0
  3 14  1  0  0  0  0
  4 12  2  0  0  0  0
  5 18  1  0  0  0  0
  5 21  1  0  0  0  0
  6  7  1  0  0  0  0
  6  8  1  0  0  0  0
  6  9  1  0  0  0  0
  6 10  1  0  0  0  0
  7  8  1  6  0  0  0
  7 11  1  0  0  0  0
  7 27  1  0  0  0  0
  8 12  1  0  0  0  0
  8 28  1  6  0  0  0
  9 29  1  0  0  0  0
  9 30  1  0  0  0  0
  9 31  1  0  0  0  0
 10 32  1  0  0  0  0
 10 33  1  0  0  0  0
 10 34  1  0  0  0  0
 11 13  2  0  0  0  0
 11 35  1  0  0  0  0
 14 15  1  0  0  0  0
 14 36  1  0  0  0  0
 14 37  1  0  0  0  0
 15 16  2  0  0  0  0
 15 17  1  0  0  0  0
 16 18  1  0  0  0  0
 16 38  1  0  0  0  0
 17 19  2  0  0  0  0
 17 39  1  0  0  0  0
 18 20  2  0  0  0  0
 19 20  1  0  0  0  0
 19 40  1  0  0  0  0
 20 41  1  0  0  0  0
 21 22  2  0  0  0  0
 21 23  1  0  0  0  0
 22 24  1  0  0  0  0
 22 42  1  0  0  0  0
 23 25  2  0  0  0  0
 23 43  1  0  0  0  0
 24 26  2  0  0  0  0
 24 44  1  0  0  0  0
 25 26  1  0  0  0  0
 25 45  1  0  0  0  0
 26 46  1  0  0  0  0
M  END
