DB04865
 OpenBabel07062211533D

 78 82  0  0  1  0  0  0  0  0999 V2000
   -0.9071    1.4120   -0.1856 O   0  0  0  0  0  0  0  0  0  0  0  0
   -3.0725    3.2660   -0.8276 O   0  0  0  0  0  0  0  0  0  0  0  0
    1.0502   -3.7878   -0.1528 O   0  0  0  0  0  0  0  0  0  0  0  0
    0.8052   -3.7395    2.2429 O   0  0  0  0  0  0  0  0  0  0  0  0
    0.4391    1.9768   -1.9672 O   0  0  0  0  0  0  0  0  0  0  0  0
    0.6023    2.6978    1.4260 O   0  0  0  0  0  0  0  0  0  0  0  0
    4.5235    3.4484    0.1891 O   0  0  0  0  0  0  0  0  0  0  0  0
    3.4901   -2.2074   -1.9906 O   0  0  0  0  0  0  0  0  0  0  0  0
    3.0821    4.1750    1.8391 O   0  0  0  0  0  0  0  0  0  0  0  0
   -4.5233   -1.0989    0.4795 N   0  0  2  0  0  0  0  0  0  0  0  0
   -4.0101   -0.2935   -0.6317 C   0  0  1  0  0  0  0  0  0  0  0  0
   -2.4645   -0.3819   -0.9148 C   0  0  1  0  0  0  0  0  0  0  0  0
   -4.8017   -0.9219   -1.7955 C   0  0  0  0  0  0  0  0  0  0  0  0
   -1.9590    1.0807   -1.0763 C   0  0  1  0  0  0  0  0  0  0  0  0
   -5.9622   -1.2993    0.2835 C   0  0  0  0  0  0  0  0  0  0  0  0
   -6.1777   -1.2209   -1.2203 C   0  0  0  0  0  0  0  0  0  0  0  0
   -4.2710    1.1899   -0.5583 C   0  0  0  0  0  0  0  0  0  0  0  0
   -1.6296   -1.2547    0.0130 C   0  0  0  0  0  0  0  0  0  0  0  0
   -4.2065   -0.6849    1.8432 C   0  0  0  0  0  0  0  0  0  0  0  0
   -3.1688    1.9040   -0.8000 C   0  0  0  0  0  0  0  0  0  0  0  0
   -2.7478   -0.3005    2.0971 C   0  0  0  0  0  0  0  0  0  0  0  0
   -1.7600   -1.2222    1.4296 C   0  0  0  0  0  0  0  0  0  0  0  0
   -0.6745   -2.1121   -0.5699 C   0  0  0  0  0  0  0  0  0  0  0  0
   -0.9573   -2.0520    2.2337 C   0  0  0  0  0  0  0  0  0  0  0  0
    0.0943   -2.9083    0.2532 C   0  0  0  0  0  0  0  0  0  0  0  0
   -0.0447   -2.8805    1.6172 C   0  0  0  0  0  0  0  0  0  0  0  0
    0.2570    1.8539   -0.7618 C   0  0  0  0  0  0  0  0  0  0  0  0
    1.3073    2.1737    0.3023 C   0  0  2  0  0  0  0  0  0  0  0  0
   -4.3252    3.8769   -0.5601 C   0  0  0  0  0  0  0  0  0  0  0  0
    2.1113    0.9236    0.7172 C   0  0  0  0  0  0  0  0  0  0  0  0
    1.4955   -4.3131    1.1142 C   0  0  0  0  0  0  0  0  0  0  0  0
    2.2102    3.2955   -0.2388 C   0  0  0  0  0  0  0  0  0  0  0  0
    2.8870    0.2530   -0.4287 C   0  0  0  0  0  0  0  0  0  0  0  0
    3.6785   -0.9600    0.0826 C   0  0  0  0  0  0  0  0  0  0  0  0
    4.4269   -1.7435   -1.0162 C   0  0  0  0  0  0  0  0  0  0  0  0
    3.2977    3.7042    0.7297 C   0  0  0  0  0  0  0  0  0  0  0  0
    5.4596   -0.8838   -1.7464 C   0  0  0  0  0  0  0  0  0  0  0  0
    5.1151   -2.9684   -0.4049 C   0  0  0  0  0  0  0  0  0  0  0  0
    5.6425    3.7714    1.0204 C   0  0  0  0  0  0  0  0  0  0  0  0
   -2.3613   -0.8361   -1.9128 H   0  0  0  0  0  0  0  0  0  0  0  0
   -4.8694   -0.2768   -2.6789 H   0  0  0  0  0  0  0  0  0  0  0  0
   -4.3439   -1.8689   -2.1132 H   0  0  0  0  0  0  0  0  0  0  0  0
   -1.6870    1.2348   -2.1283 H   0  0  0  0  0  0  0  0  0  0  0  0
   -6.2751   -2.2715    0.6782 H   0  0  0  0  0  0  0  0  0  0  0  0
   -6.5625   -0.5238    0.7753 H   0  0  0  0  0  0  0  0  0  0  0  0
   -6.8774   -0.4131   -1.4629 H   0  0  0  0  0  0  0  0  0  0  0  0
   -6.5816   -2.1528   -1.6288 H   0  0  0  0  0  0  0  0  0  0  0  0
   -5.2590    1.5733   -0.3449 H   0  0  0  0  0  0  0  0  0  0  0  0
   -4.8353    0.1581    2.1588 H   0  0  0  0  0  0  0  0  0  0  0  0
   -4.4555   -1.5219    2.5088 H   0  0  0  0  0  0  0  0  0  0  0  0
   -2.5787   -0.2882    3.1818 H   0  0  0  0  0  0  0  0  0  0  0  0
   -2.5541    0.7282    1.7772 H   0  0  0  0  0  0  0  0  0  0  0  0
   -0.5381   -2.1522   -1.6463 H   0  0  0  0  0  0  0  0  0  0  0  0
   -1.0468   -2.0428    3.3154 H   0  0  0  0  0  0  0  0  0  0  0  0
   -4.1708    4.9607   -0.5988 H   0  0  0  0  0  0  0  0  0  0  0  0
   -4.6864    3.6485    0.4496 H   0  0  0  0  0  0  0  0  0  0  0  0
   -5.0708    3.6397   -1.3278 H   0  0  0  0  0  0  0  0  0  0  0  0
    1.4170    0.1885    1.1461 H   0  0  0  0  0  0  0  0  0  0  0  0
    2.7949    1.1751    1.5379 H   0  0  0  0  0  0  0  0  0  0  0  0
    1.3343   -5.3973    1.1193 H   0  0  0  0  0  0  0  0  0  0  0  0
    2.5655   -4.1182    1.2289 H   0  0  0  0  0  0  0  0  0  0  0  0
    1.6216    4.2018   -0.4354 H   0  0  0  0  0  0  0  0  0  0  0  0
    2.6634    3.0221   -1.1991 H   0  0  0  0  0  0  0  0  0  0  0  0
    3.5789    0.9711   -0.8766 H   0  0  0  0  0  0  0  0  0  0  0  0
    2.1895   -0.0674   -1.2099 H   0  0  0  0  0  0  0  0  0  0  0  0
    0.0752    1.9771    1.8116 H   0  0  0  0  0  0  0  0  0  0  0  0
    2.9722   -1.6363    0.5785 H   0  0  0  0  0  0  0  0  0  0  0  0
    4.3918   -0.6277    0.8476 H   0  0  0  0  0  0  0  0  0  0  0  0
    4.9812   -0.0882   -2.3272 H   0  0  0  0  0  0  0  0  0  0  0  0
    6.1715   -0.4313   -1.0485 H   0  0  0  0  0  0  0  0  0  0  0  0
    6.0244   -1.4823   -2.4709 H   0  0  0  0  0  0  0  0  0  0  0  0
    5.6477   -3.5424   -1.1720 H   0  0  0  0  0  0  0  0  0  0  0  0
    5.8332   -2.6821    0.3704 H   0  0  0  0  0  0  0  0  0  0  0  0
    4.3840   -3.6539    0.0314 H   0  0  0  0  0  0  0  0  0  0  0  0
    3.9774   -2.7160   -2.6611 H   0  0  0  0  0  0  0  0  0  0  0  0
    6.5554    3.5214    0.4735 H   0  0  0  0  0  0  0  0  0  0  0  0
    5.6122    3.1811    1.9412 H   0  0  0  0  0  0  0  0  0  0  0  0
    5.6503    4.8419    1.2466 H   0  0  0  0  0  0  0  0  0  0  0  0
  1 14  1  0  0  0  0
  1 27  1  0  0  0  0
  2 20  1  0  0  0  0
  2 29  1  0  0  0  0
  3 25  1  0  0  0  0
  3 31  1  0  0  0  0
  4 26  1  0  0  0  0
  4 31  1  0  0  0  0
  5 27  2  0  0  0  0
  6 66  1  0  0  0  0
  7 36  1  0  0  0  0
  7 39  1  0  0  0  0
  8 35  1  0  0  0  0
  8 75  1  0  0  0  0
  9 36  2  0  0  0  0
 10 11  1  6  0  0  0
 10 15  1  0  0  0  0
 10 19  1  0  0  0  0
 11 12  1  6  0  0  0
 11 13  1  0  0  0  0
 11 17  1  0  0  0  0
 12 14  1  6  0  0  0
 12 18  1  0  0  0  0
 12 40  1  0  0  0  0
 13 16  1  0  0  0  0
 13 41  1  0  0  0  0
 13 42  1  0  0  0  0
 14 20  1  0  0  0  0
 14 43  1  6  0  0  0
 15 16  1  0  0  0  0
 15 44  1  0  0  0  0
 15 45  1  0  0  0  0
 16 46  1  0  0  0  0
 16 47  1  0  0  0  0
 17 20  2  0  0  0  0
 17 48  1  0  0  0  0
 18 22  2  0  0  0  0
 18 23  1  0  0  0  0
 19 21  1  0  0  0  0
 19 49  1  0  0  0  0
 19 50  1  0  0  0  0
 21 22  1  0  0  0  0
 21 51  1  0  0  0  0
 21 52  1  0  0  0  0
 22 24  1  0  0  0  0
 23 25  2  0  0  0  0
 23 53  1  0  0  0  0
 24 26  2  0  0  0  0
 24 54  1  0  0  0  0
 25 26  1  0  0  0  0
 27 28  1  0  0  0  0
 28  6  1  1  0  0  0
 28 30  1  0  0  0  0
 28 32  1  0  0  0  0
 29 55  1  0  0  0  0
 29 56  1  0  0  0  0
 29 57  1  0  0  0  0
 30 33  1  0  0  0  0
 30 58  1  0  0  0  0
 30 59  1  0  0  0  0
 31 60  1  0  0  0  0
 31 61  1  0  0  0  0
 32 36  1  0  0  0  0
 32 62  1  0  0  0  0
 32 63  1  0  0  0  0
 33 34  1  0  0  0  0
 33 64  1  0  0  0  0
 33 65  1  0  0  0  0
 34 35  1  0  0  0  0
 34 67  1  0  0  0  0
 34 68  1  0  0  0  0
 35 37  1  0  0  0  0
 35 38  1  0  0  0  0
 37 69  1  0  0  0  0
 37 70  1  0  0  0  0
 37 71  1  0  0  0  0
 38 72  1  0  0  0  0
 38 73  1  0  0  0  0
 38 74  1  0  0  0  0
 39 76  1  0  0  0  0
 39 77  1  0  0  0  0
 39 78  1  0  0  0  0
M  END
