DB04953
 OpenBabel07062211533D

 40 41  0  0  0  0  0  0  0  0999 V2000
   -8.5831   -0.1544    0.1070 F   0  0  0  0  0  0  0  0  0  0  0  0
    5.4607    0.0845    0.0115 O   0  0  0  0  0  0  0  0  0  0  0  0
    3.8938    1.7497   -0.0276 O   0  0  0  0  0  0  0  0  0  0  0  0
   -2.3030   -0.3500   -0.0416 N   0  0  0  0  0  0  0  0  0  0  0  0
    3.2920   -0.5163    0.0039 N   0  0  0  0  0  0  0  0  0  0  0  0
    1.7998   -2.9348    0.0307 N   0  0  0  0  0  0  0  0  0  0  0  0
   -3.0616    0.8819   -0.0669 C   0  0  0  0  0  0  0  0  0  0  0  0
   -0.9198   -0.3977   -0.0303 C   0  0  0  0  0  0  0  0  0  0  0  0
   -4.5267    0.6075   -0.0211 C   0  0  0  0  0  0  0  0  0  0  0  0
    1.8944   -0.4938   -0.0075 C   0  0  0  0  0  0  0  0  0  0  0  0
   -0.2379   -1.6295   -0.0055 C   0  0  0  0  0  0  0  0  0  0  0  0
    1.1561   -1.6771    0.0057 C   0  0  0  0  0  0  0  0  0  0  0  0
   -0.1551    0.7848   -0.0433 C   0  0  0  0  0  0  0  0  0  0  0  0
    1.2389    0.7372   -0.0318 C   0  0  0  0  0  0  0  0  0  0  0  0
   -5.2418    0.4356   -1.2063 C   0  0  0  0  0  0  0  0  0  0  0  0
   -5.1819    0.5224    1.2074 C   0  0  0  0  0  0  0  0  0  0  0  0
   -6.6120    0.1785   -1.1630 C   0  0  0  0  0  0  0  0  0  0  0  0
   -6.5523    0.2652    1.2506 C   0  0  0  0  0  0  0  0  0  0  0  0
   -7.2674    0.0933    0.0655 C   0  0  0  0  0  0  0  0  0  0  0  0
    4.1759    0.5578   -0.0060 C   0  0  0  0  0  0  0  0  0  0  0  0
    6.4959    1.0745    0.0033 C   0  0  0  0  0  0  0  0  0  0  0  0
    7.8415    0.3813    0.0249 C   0  0  0  0  0  0  0  0  0  0  0  0
   -2.8283    1.4558   -0.9731 H   0  0  0  0  0  0  0  0  0  0  0  0
   -2.7922    1.5171    0.7870 H   0  0  0  0  0  0  0  0  0  0  0  0
   -2.8016   -1.2335   -0.0394 H   0  0  0  0  0  0  0  0  0  0  0  0
   -0.8111   -2.5552    0.0049 H   0  0  0  0  0  0  0  0  0  0  0  0
   -0.6242    1.7650   -0.0641 H   0  0  0  0  0  0  0  0  0  0  0  0
    1.7352    1.6970   -0.0437 H   0  0  0  0  0  0  0  0  0  0  0  0
   -4.7428    0.4973   -2.1698 H   0  0  0  0  0  0  0  0  0  0  0  0
   -4.6361    0.6522    2.1383 H   0  0  0  0  0  0  0  0  0  0  0  0
    3.7335   -1.4296    0.0219 H   0  0  0  0  0  0  0  0  0  0  0  0
   -7.1691    0.0439   -2.0854 H   0  0  0  0  0  0  0  0  0  0  0  0
   -7.0626    0.1980    2.2068 H   0  0  0  0  0  0  0  0  0  0  0  0
    1.2404   -3.7779    0.0404 H   0  0  0  0  0  0  0  0  0  0  0  0
    2.8052   -3.0154    0.0400 H   0  0  0  0  0  0  0  0  0  0  0  0
    6.4089    1.6857   -0.9019 H   0  0  0  0  0  0  0  0  0  0  0  0
    6.3952    1.7148    0.8868 H   0  0  0  0  0  0  0  0  0  0  0  0
    8.6570    1.1099    0.0192 H   0  0  0  0  0  0  0  0  0  0  0  0
    7.9363   -0.2486    0.9156 H   0  0  0  0  0  0  0  0  0  0  0  0
    7.9496   -0.2772   -0.8433 H   0  0  0  0  0  0  0  0  0  0  0  0
  1 19  1  0  0  0  0
  2 20  1  0  0  0  0
  2 21  1  0  0  0  0
  3 20  2  0  0  0  0
  4  7  1  0  0  0  0
  4  8  1  0  0  0  0
  4 25  1  0  0  0  0
  5 10  1  0  0  0  0
  5 20  1  0  0  0  0
  5 31  1  0  0  0  0
  6 12  1  0  0  0  0
  6 34  1  0  0  0  0
  6 35  1  0  0  0  0
  7  9  1  0  0  0  0
  7 23  1  0  0  0  0
  7 24  1  0  0  0  0
  8 11  2  0  0  0  0
  8 13  1  0  0  0  0
  9 15  2  0  0  0  0
  9 16  1  0  0  0  0
 10 12  2  0  0  0  0
 10 14  1  0  0  0  0
 11 12  1  0  0  0  0
 11 26  1  0  0  0  0
 13 14  2  0  0  0  0
 13 27  1  0  0  0  0
 14 28  1  0  0  0  0
 15 17  1  0  0  0  0
 15 29  1  0  0  0  0
 16 18  2  0  0  0  0
 16 30  1  0  0  0  0
 17 19  2  0  0  0  0
 17 32  1  0  0  0  0
 18 19  1  0  0  0  0
 18 33  1  0  0  0  0
 21 22  1  0  0  0  0
 21 36  1  0  0  0  0
 21 37  1  0  0  0  0
 22 38  1  0  0  0  0
 22 39  1  0  0  0  0
 22 40  1  0  0  0  0
M  END
