DB04868
 OpenBabel07062211533D

 61 65  0  0  0  0  0  0  0  0999 V2000
   -4.7996    5.0546   -0.5357 F   0  0  0  0  0  0  0  0  0  0  0  0
   -3.0348    5.9414    0.3608 F   0  0  0  0  0  0  0  0  0  0  0  0
   -3.0414    5.4416   -1.7556 F   0  0  0  0  0  0  0  0  0  0  0  0
    1.1831    3.9940    0.8324 O   0  0  0  0  0  0  0  0  0  0  0  0
   -4.1644    0.2570    0.5474 N   0  0  0  0  0  0  0  0  0  0  0  0
    0.3450    1.9158    0.1367 N   0  0  0  0  0  0  0  0  0  0  0  0
    4.4861   -0.9432    0.6397 N   0  0  0  0  0  0  0  0  0  0  0  0
   -6.0852   -0.8418    0.8132 N   0  0  0  0  0  0  0  0  0  0  0  0
    2.4841   -1.8453   -0.1875 N   0  0  0  0  0  0  0  0  0  0  0  0
    4.2391   -3.2767    0.6361 N   0  0  0  0  0  0  0  0  0  0  0  0
   -0.9680   -1.3076   -2.3926 N   0  0  0  0  0  0  0  0  0  0  0  0
   -3.2906    1.3007    0.3034 C   0  0  0  0  0  0  0  0  0  0  0  0
   -1.0534    2.1381    0.0970 C   0  0  0  0  0  0  0  0  0  0  0  0
   -2.9055    3.6263   -0.2260 C   0  0  0  0  0  0  0  0  0  0  0  0
   -1.9136    1.0814    0.3427 C   0  0  0  0  0  0  0  0  0  0  0  0
   -3.7866    2.5732    0.0190 C   0  0  0  0  0  0  0  0  0  0  0  0
   -1.5286    3.4070   -0.1870 C   0  0  0  0  0  0  0  0  0  0  0  0
    2.7198    2.3004    0.4067 C   0  0  0  0  0  0  0  0  0  0  0  0
    4.2619    0.4421    0.4822 C   0  0  0  0  0  0  0  0  0  0  0  0
    5.3250    1.3151    0.2506 C   0  0  0  0  0  0  0  0  0  0  0  0
    2.9592    0.9347    0.5602 C   0  0  0  0  0  0  0  0  0  0  0  0
    1.3619    2.8147    0.4879 C   0  0  0  0  0  0  0  0  0  0  0  0
   -3.8275   -1.0402    0.8388 C   0  0  0  0  0  0  0  0  0  0  0  0
    3.7829    3.1733    0.1752 C   0  0  0  0  0  0  0  0  0  0  0  0
    5.0855    2.6806    0.0972 C   0  0  0  0  0  0  0  0  0  0  0  0
   -3.4352    4.9868   -0.5304 C   0  0  0  0  0  0  0  0  0  0  0  0
   -5.5351    0.3214    0.5445 C   0  0  0  0  0  0  0  0  0  0  0  0
   -5.0261   -1.6952    0.9976 C   0  0  0  0  0  0  0  0  0  0  0  0
    6.7302    0.8150    0.1622 C   0  0  0  0  0  0  0  0  0  0  0  0
    3.7001   -2.0739    0.3495 C   0  0  0  0  0  0  0  0  0  0  0  0
   -5.2534   -3.1119    1.3207 C   0  0  0  0  0  0  0  0  0  0  0  0
    1.7576   -2.9507   -0.4531 C   0  0  0  0  0  0  0  0  0  0  0  0
    0.4566   -2.7055   -1.0275 C   0  0  0  0  0  0  0  0  0  0  0  0
    2.1976   -4.2351   -0.2055 C   0  0  0  0  0  0  0  0  0  0  0  0
    3.4588   -4.3383    0.3452 C   0  0  0  0  0  0  0  0  0  0  0  0
   -0.6046   -3.5751   -0.7991 C   0  0  0  0  0  0  0  0  0  0  0  0
    0.2245   -1.5959   -1.8248 C   0  0  0  0  0  0  0  0  0  0  0  0
   -1.8466   -3.3124   -1.3662 C   0  0  0  0  0  0  0  0  0  0  0  0
   -1.9752   -2.1756   -2.1479 C   0  0  0  0  0  0  0  0  0  0  0  0
   -1.4799    0.1118    0.5629 H   0  0  0  0  0  0  0  0  0  0  0  0
   -4.8494    2.7838   -0.0206 H   0  0  0  0  0  0  0  0  0  0  0  0
   -0.8642    4.2352   -0.4122 H   0  0  0  0  0  0  0  0  0  0  0  0
    0.5879    0.9392    0.0056 H   0  0  0  0  0  0  0  0  0  0  0  0
    2.1555    0.2668    0.8460 H   0  0  0  0  0  0  0  0  0  0  0  0
   -2.8161   -1.4095    0.9244 H   0  0  0  0  0  0  0  0  0  0  0  0
    3.6183    4.2401    0.0475 H   0  0  0  0  0  0  0  0  0  0  0  0
    5.9020    3.3746   -0.0841 H   0  0  0  0  0  0  0  0  0  0  0  0
   -6.1104    1.2148    0.3468 H   0  0  0  0  0  0  0  0  0  0  0  0
    5.4217   -1.1946    0.9417 H   0  0  0  0  0  0  0  0  0  0  0  0
    7.0586    0.4238    1.1307 H   0  0  0  0  0  0  0  0  0  0  0  0
    6.8150    0.0298   -0.5965 H   0  0  0  0  0  0  0  0  0  0  0  0
    7.4271    1.6108   -0.1231 H   0  0  0  0  0  0  0  0  0  0  0  0
   -4.3111   -3.6394    1.5001 H   0  0  0  0  0  0  0  0  0  0  0  0
   -5.7704   -3.6123    0.4960 H   0  0  0  0  0  0  0  0  0  0  0  0
   -5.8702   -3.2051    2.2199 H   0  0  0  0  0  0  0  0  0  0  0  0
    1.6320   -5.1293   -0.4339 H   0  0  0  0  0  0  0  0  0  0  0  0
    3.8921   -5.3071    0.5700 H   0  0  0  0  0  0  0  0  0  0  0  0
   -0.5107   -4.4540   -0.1671 H   0  0  0  0  0  0  0  0  0  0  0  0
    1.0027   -0.8745   -2.0569 H   0  0  0  0  0  0  0  0  0  0  0  0
   -2.6899   -3.9718   -1.1957 H   0  0  0  0  0  0  0  0  0  0  0  0
   -2.9241   -1.9236   -2.6096 H   0  0  0  0  0  0  0  0  0  0  0  0
  1 26  1  0  0  0  0
  2 26  1  0  0  0  0
  3 26  1  0  0  0  0
  4 22  2  0  0  0  0
  5 12  1  0  0  0  0
  5 23  1  0  0  0  0
  5 27  2  0  0  0  0
  6 13  1  0  0  0  0
  6 22  1  0  0  0  0
  6 43  1  0  0  0  0
  7 19  1  0  0  0  0
  7 30  1  0  0  0  0
  7 49  1  0  0  0  0
  8 27  1  0  0  0  0
  8 28  2  0  0  0  0
  9 30  2  0  0  0  0
  9 32  1  0  0  0  0
 10 30  1  0  0  0  0
 10 35  2  0  0  0  0
 11 37  2  0  0  0  0
 11 39  1  0  0  0  0
 12 15  2  0  0  0  0
 12 16  1  0  0  0  0
 13 15  1  0  0  0  0
 13 17  2  0  0  0  0
 14 16  2  0  0  0  0
 14 17  1  0  0  0  0
 14 26  1  0  0  0  0
 15 40  1  0  0  0  0
 16 41  1  0  0  0  0
 17 42  1  0  0  0  0
 18 21  2  0  0  0  0
 18 22  1  0  0  0  0
 18 24  1  0  0  0  0
 19 20  2  0  0  0  0
 19 21  1  0  0  0  0
 20 25  1  0  0  0  0
 20 29  1  0  0  0  0
 21 44  1  0  0  0  0
 23 28  1  0  0  0  0
 23 45  1  0  0  0  0
 24 25  2  0  0  0  0
 24 46  1  0  0  0  0
 25 47  1  0  0  0  0
 27 48  1  0  0  0  0
 28 31  1  0  0  0  0
 29 50  1  0  0  0  0
 29 51  1  0  0  0  0
 29 52  1  0  0  0  0
 31 53  1  0  0  0  0
 31 54  1  0  0  0  0
 31 55  1  0  0  0  0
 32 33  1  0  0  0  0
 32 34  2  0  0  0  0
 33 36  2  0  0  0  0
 33 37  1  0  0  0  0
 34 35  1  0  0  0  0
 34 56  1  0  0  0  0
 35 57  1  0  0  0  0
 36 38  1  0  0  0  0
 36 58  1  0  0  0  0
 37 59  1  0  0  0  0
 38 39  2  0  0  0  0
 38 60  1  0  0  0  0
 39 61  1  0  0  0  0
M  END
