DB04837
 OpenBabel07062211533D

 40 41  0  0  1  0  0  0  0  0999 V2000
    0.7875    0.1624    2.3531 Cl  0  0  0  0  0  0  0  0  0  0  0  0
    0.4886    0.0149   -2.1472 O   0  0  0  0  0  0  0  0  0  0  0  0
   -3.0671   -1.3573   -0.2735 N   0  0  0  0  0  0  0  0  0  0  0  0
    0.5582   -0.0757   -0.7113 C   0  0  2  0  0  0  0  0  0  0  0  0
   -0.6379   -0.9904   -0.3024 C   0  0  0  0  0  0  0  0  0  0  0  0
   -2.0158   -0.4417   -0.7068 C   0  0  0  0  0  0  0  0  0  0  0  0
    0.4087    1.3191   -0.0862 C   0  0  0  0  0  0  0  0  0  0  0  0
    1.9408   -0.6597   -0.3773 C   0  0  0  0  0  0  0  0  0  0  0  0
    0.5027    1.4796    1.2748 C   0  0  0  0  0  0  0  0  0  0  0  0
    0.1806    2.3656   -0.9496 C   0  0  0  0  0  0  0  0  0  0  0  0
    3.0549    0.0246   -0.7947 C   0  0  0  0  0  0  0  0  0  0  0  0
    1.9980   -1.8386    0.3228 C   0  0  0  0  0  0  0  0  0  0  0  0
   -2.9778   -1.5972    1.1672 C   0  0  0  0  0  0  0  0  0  0  0  0
   -4.3858   -0.8262   -0.6204 C   0  0  0  0  0  0  0  0  0  0  0  0
    0.3604    2.7613    1.8060 C   0  0  0  0  0  0  0  0  0  0  0  0
    0.0385    3.6475   -0.4185 C   0  0  0  0  0  0  0  0  0  0  0  0
    4.3092   -0.5055   -0.4920 C   0  0  0  0  0  0  0  0  0  0  0  0
    3.2522   -2.3685    0.6255 C   0  0  0  0  0  0  0  0  0  0  0  0
    0.1283    3.8453    0.9594 C   0  0  0  0  0  0  0  0  0  0  0  0
    4.4078   -1.7018    0.2182 C   0  0  0  0  0  0  0  0  0  0  0  0
   -0.6154   -1.1908    0.7640 H   0  0  0  0  0  0  0  0  0  0  0  0
   -0.5285   -1.9610   -0.8098 H   0  0  0  0  0  0  0  0  0  0  0  0
   -2.0558   -0.3317   -1.7971 H   0  0  0  0  0  0  0  0  0  0  0  0
   -2.1763    0.5513   -0.2702 H   0  0  0  0  0  0  0  0  0  0  0  0
    0.7431   -0.8468   -2.5199 H   0  0  0  0  0  0  0  0  0  0  0  0
    0.0995    2.2589   -2.0255 H   0  0  0  0  0  0  0  0  0  0  0  0
    2.9933    0.9528   -1.3536 H   0  0  0  0  0  0  0  0  0  0  0  0
    1.1389   -2.4078    0.6533 H   0  0  0  0  0  0  0  0  0  0  0  0
   -3.8883   -2.0926    1.5278 H   0  0  0  0  0  0  0  0  0  0  0  0
   -2.8608   -0.6730    1.7453 H   0  0  0  0  0  0  0  0  0  0  0  0
   -2.1741   -2.2969    1.4172 H   0  0  0  0  0  0  0  0  0  0  0  0
   -4.4626   -0.6621   -1.7011 H   0  0  0  0  0  0  0  0  0  0  0  0
   -4.5977    0.1213   -0.1115 H   0  0  0  0  0  0  0  0  0  0  0  0
   -5.1719   -1.5429   -0.3576 H   0  0  0  0  0  0  0  0  0  0  0  0
    0.4274    2.9324    2.8775 H   0  0  0  0  0  0  0  0  0  0  0  0
   -0.1433    4.4919   -1.0770 H   0  0  0  0  0  0  0  0  0  0  0  0
    5.2089    0.0127   -0.8106 H   0  0  0  0  0  0  0  0  0  0  0  0
    3.3300   -3.3016    1.1759 H   0  0  0  0  0  0  0  0  0  0  0  0
    0.0171    4.8434    1.3729 H   0  0  0  0  0  0  0  0  0  0  0  0
    5.3844   -2.1151    0.4531 H   0  0  0  0  0  0  0  0  0  0  0  0
  1  9  1  0  0  0  0
  2 25  1  0  0  0  0
  3  6  1  0  0  0  0
  3 13  1  0  0  0  0
  3 14  1  0  0  0  0
  4  2  1  6  0  0  0
  4  5  1  0  0  0  0
  4  7  1  0  0  0  0
  4  8  1  0  0  0  0
  5  6  1  0  0  0  0
  5 21  1  0  0  0  0
  5 22  1  0  0  0  0
  6 23  1  0  0  0  0
  6 24  1  0  0  0  0
  7  9  2  0  0  0  0
  7 10  1  0  0  0  0
  8 11  2  0  0  0  0
  8 12  1  0  0  0  0
  9 15  1  0  0  0  0
 10 16  2  0  0  0  0
 10 26  1  0  0  0  0
 11 17  1  0  0  0  0
 11 27  1  0  0  0  0
 12 18  2  0  0  0  0
 12 28  1  0  0  0  0
 13 29  1  0  0  0  0
 13 30  1  0  0  0  0
 13 31  1  0  0  0  0
 14 32  1  0  0  0  0
 14 33  1  0  0  0  0
 14 34  1  0  0  0  0
 15 19  2  0  0  0  0
 15 35  1  0  0  0  0
 16 19  1  0  0  0  0
 16 36  1  0  0  0  0
 17 20  2  0  0  0  0
 17 37  1  0  0  0  0
 18 20  1  0  0  0  0
 18 38  1  0  0  0  0
 19 39  1  0  0  0  0
 20 40  1  0  0  0  0
M  END
