DB04272
 OpenBabel07062211533D

 21 20  0  0  0  0  0  0  0  0999 V2000
    0.0380   -0.2564    1.7839 O   0  0  0  0  0  0  0  0  0  0  0  0
    0.8037   -1.8881   -1.3286 O   0  0  0  0  0  0  0  0  0  0  0  0
    1.1820   -2.4554    0.8313 O   0  0  0  0  0  0  0  0  0  0  0  0
    2.8158    1.9782   -0.4965 O   0  0  0  0  0  0  0  0  0  0  0  0
   -3.2941    0.8325   -0.8233 O   0  0  0  0  0  0  0  0  0  0  0  0
    2.7301    0.2662    0.9908 O   0  0  0  0  0  0  0  0  0  0  0  0
   -2.2734    1.3910    1.1261 O   0  0  0  0  0  0  0  0  0  0  0  0
   -0.0130   -0.3741    0.3669 C   0  0  0  0  0  0  0  0  0  0  0  0
    0.7462    0.7956   -0.2834 C   0  0  0  0  0  0  0  0  0  0  0  0
   -1.4697   -0.5326   -0.0965 C   0  0  0  0  0  0  0  0  0  0  0  0
    0.7046   -1.6814    0.0106 C   0  0  0  0  0  0  0  0  0  0  0  0
    2.1872    0.9608    0.1406 C   0  0  0  0  0  0  0  0  0  0  0  0
   -2.3753    0.6502    0.1563 C   0  0  0  0  0  0  0  0  0  0  0  0
    0.2500    1.7354   -0.0118 H   0  0  0  0  0  0  0  0  0  0  0  0
    0.7284    0.7021   -1.3756 H   0  0  0  0  0  0  0  0  0  0  0  0
   -1.9395   -1.3899    0.4026 H   0  0  0  0  0  0  0  0  0  0  0  0
   -1.4899   -0.7358   -1.1750 H   0  0  0  0  0  0  0  0  0  0  0  0
   -0.4974   -0.9713    2.1687 H   0  0  0  0  0  0  0  0  0  0  0  0
    1.2827   -2.7188   -1.5355 H   0  0  0  0  0  0  0  0  0  0  0  0
    3.7454    2.0781   -0.1993 H   0  0  0  0  0  0  0  0  0  0  0  0
   -3.8619    1.6139   -0.6523 H   0  0  0  0  0  0  0  0  0  0  0  0
  1  8  1  0  0  0  0
  1 18  1  0  0  0  0
  2 11  1  0  0  0  0
  2 19  1  0  0  0  0
  3 11  2  0  0  0  0
  4 12  1  0  0  0  0
  4 20  1  0  0  0  0
  5 13  1  0  0  0  0
  5 21  1  0  0  0  0
  6 12  2  0  0  0  0
  7 13  2  0  0  0  0
  8  9  1  0  0  0  0
  8 10  1  0  0  0  0
  8 11  1  0  0  0  0
  9 12  1  0  0  0  0
  9 14  1  0  0  0  0
  9 15  1  0  0  0  0
 10 13  1  0  0  0  0
 10 16  1  0  0  0  0
 10 17  1  0  0  0  0
M  END
