DB04832
 OpenBabel07062211533D

 36 37  0  0  0  0  0  0  0  0999 V2000
    6.4786   -1.2837   -0.5514 Br  0  0  0  0  0  0  0  0  0  0  0  0
   -2.4972   -1.8142    0.1338 N   0  0  0  0  0  0  0  0  0  0  0  0
   -0.5120    3.4716    1.1712 N   0  0  0  0  0  0  0  0  0  0  0  0
    0.5484   -0.0201    0.3779 C   0  0  0  0  0  0  0  0  0  0  0  0
   -1.7282   -0.9893    1.0649 C   0  0  0  0  0  0  0  0  0  0  0  0
   -0.2580   -1.0392    0.7499 C   0  0  0  0  0  0  0  0  0  0  0  0
    1.9853   -0.3264    0.1527 C   0  0  0  0  0  0  0  0  0  0  0  0
    0.0001    1.3434    0.2034 C   0  0  0  0  0  0  0  0  0  0  0  0
    2.8623   -0.2211    1.2120 C   0  0  0  0  0  0  0  0  0  0  0  0
    2.3953   -0.7060   -1.1083 C   0  0  0  0  0  0  0  0  0  0  0  0
   -2.3110   -1.3445   -1.2387 C   0  0  0  0  0  0  0  0  0  0  0  0
   -3.9155   -1.8011    0.4905 C   0  0  0  0  0  0  0  0  0  0  0  0
   -0.4854    1.7388   -1.0220 C   0  0  0  0  0  0  0  0  0  0  0  0
   -0.0251    2.2138    1.2625 C   0  0  0  0  0  0  0  0  0  0  0  0
    4.2108   -0.5084    1.0008 C   0  0  0  0  0  0  0  0  0  0  0  0
    3.7437   -0.9934   -1.3195 C   0  0  0  0  0  0  0  0  0  0  0  0
    4.6516   -0.8945   -0.2650 C   0  0  0  0  0  0  0  0  0  0  0  0
   -0.9945    3.0258   -1.1554 C   0  0  0  0  0  0  0  0  0  0  0  0
   -0.9853    3.8459   -0.0385 C   0  0  0  0  0  0  0  0  0  0  0  0
   -1.8494   -1.3808    2.0832 H   0  0  0  0  0  0  0  0  0  0  0  0
   -2.1121    0.0372    1.0831 H   0  0  0  0  0  0  0  0  0  0  0  0
    0.1851   -2.0299    0.8658 H   0  0  0  0  0  0  0  0  0  0  0  0
    2.5299    0.0782    2.2021 H   0  0  0  0  0  0  0  0  0  0  0  0
    1.6969   -0.7871   -1.9365 H   0  0  0  0  0  0  0  0  0  0  0  0
   -1.2793   -1.4631   -1.5849 H   0  0  0  0  0  0  0  0  0  0  0  0
   -2.6171   -0.3003   -1.3654 H   0  0  0  0  0  0  0  0  0  0  0  0
   -2.9160   -1.9493   -1.9253 H   0  0  0  0  0  0  0  0  0  0  0  0
   -4.4859   -2.4579   -0.1757 H   0  0  0  0  0  0  0  0  0  0  0  0
   -4.3482   -0.7954    0.4363 H   0  0  0  0  0  0  0  0  0  0  0  0
   -4.0606   -2.1846    1.5067 H   0  0  0  0  0  0  0  0  0  0  0  0
   -0.4735    1.0779   -1.8835 H   0  0  0  0  0  0  0  0  0  0  0  0
    0.3459    1.9427    2.2458 H   0  0  0  0  0  0  0  0  0  0  0  0
    4.9050   -0.4266    1.8332 H   0  0  0  0  0  0  0  0  0  0  0  0
    4.0708   -1.2932   -2.3118 H   0  0  0  0  0  0  0  0  0  0  0  0
   -1.3846    3.3764   -2.1039 H   0  0  0  0  0  0  0  0  0  0  0  0
   -1.3709    4.8587   -0.0902 H   0  0  0  0  0  0  0  0  0  0  0  0
  1 17  1  0  0  0  0
  2  5  1  0  0  0  0
  2 11  1  0  0  0  0
  2 12  1  0  0  0  0
  3 14  2  0  0  0  0
  3 19  1  0  0  0  0
  4  6  2  0  0  0  0
  4  7  1  0  0  0  0
  4  8  1  0  0  0  0
  5  6  1  0  0  0  0
  5 20  1  0  0  0  0
  5 21  1  0  0  0  0
  6 22  1  0  0  0  0
  7  9  2  0  0  0  0
  7 10  1  0  0  0  0
  8 13  2  0  0  0  0
  8 14  1  0  0  0  0
  9 15  1  0  0  0  0
  9 23  1  0  0  0  0
 10 16  2  0  0  0  0
 10 24  1  0  0  0  0
 11 25  1  0  0  0  0
 11 26  1  0  0  0  0
 11 27  1  0  0  0  0
 12 28  1  0  0  0  0
 12 29  1  0  0  0  0
 12 30  1  0  0  0  0
 13 18  1  0  0  0  0
 13 31  1  0  0  0  0
 14 32  1  0  0  0  0
 15 17  2  0  0  0  0
 15 33  1  0  0  0  0
 16 17  1  0  0  0  0
 16 34  1  0  0  0  0
 18 19  2  0  0  0  0
 18 35  1  0  0  0  0
 19 36  1  0  0  0  0
M  END
