DB05812
 OpenBabel07062211533D

 57 61  0  0  1  0  0  0  0  0999 V2000
   -6.7018    0.4262   -0.7437 O   0  0  0  0  0  0  0  0  0  0  0  0
    5.8306    2.1652    0.2384 N   0  0  0  0  0  0  0  0  0  0  0  0
   -0.9725    0.2000   -0.2501 C   0  0  1  0  0  0  0  0  0  0  0  0
   -0.3913   -1.1403    0.2870 C   0  0  2  0  0  0  0  0  0  0  0  0
    1.0838   -1.2373   -0.1096 C   0  0  1  0  0  0  0  0  0  0  0  0
    1.9530   -0.0792    0.4481 C   0  0  2  0  0  0  0  0  0  0  0  0
   -2.4840    0.3836    0.1733 C   0  0  2  0  0  0  0  0  0  0  0  0
   -0.0667    1.4221    0.0648 C   0  0  0  0  0  0  0  0  0  0  0  0
    1.4293    1.1970   -0.2316 C   0  0  0  0  0  0  0  0  0  0  0  0
   -1.1935   -2.3229   -0.2757 C   0  0  0  0  0  0  0  0  0  0  0  0
    1.8699   -2.5008    0.2198 C   0  0  0  0  0  0  0  0  0  0  0  0
   -3.2693   -0.9190   -0.0383 C   0  0  0  0  0  0  0  0  0  0  0  0
   -3.1065    1.5047   -0.7113 C   0  0  0  0  0  0  0  0  0  0  0  0
    3.3183   -0.6304    0.0491 C   0  0  0  0  0  0  0  0  0  0  0  0
   -2.6730   -2.1055   -0.2501 C   0  0  0  0  0  0  0  0  0  0  0  0
    1.8935    0.0476    1.9920 C   0  0  0  0  0  0  0  0  0  0  0  0
   -2.6072    0.7800    1.6642 C   0  0  0  0  0  0  0  0  0  0  0  0
    3.2613   -1.9786   -0.0045 C   0  0  0  0  0  0  0  0  0  0  0  0
   -4.7775   -0.8274   -0.0096 C   0  0  0  0  0  0  0  0  0  0  0  0
   -4.6277    1.6122   -0.6129 C   0  0  0  0  0  0  0  0  0  0  0  0
   -5.2969    0.2783   -0.9243 C   0  0  2  0  0  0  0  0  0  0  0  0
    4.5349    0.1628   -0.2002 C   0  0  0  0  0  0  0  0  0  0  0  0
    5.5280   -0.2858   -1.0711 C   0  0  0  0  0  0  0  0  0  0  0  0
    4.7394    1.3887    0.4227 C   0  0  0  0  0  0  0  0  0  0  0  0
    6.6651    0.4851   -1.2865 C   0  0  0  0  0  0  0  0  0  0  0  0
    6.7675    1.6920   -0.6138 C   0  0  0  0  0  0  0  0  0  0  0  0
   -0.9598    0.1114   -1.3490 H   0  0  0  0  0  0  0  0  0  0  0  0
   -0.4781   -1.1727    1.3785 H   0  0  0  0  0  0  0  0  0  0  0  0
    1.0956   -1.1672   -1.2142 H   0  0  0  0  0  0  0  0  0  0  0  0
   -0.1651    1.7130    1.1145 H   0  0  0  0  0  0  0  0  0  0  0  0
   -0.3993    2.2860   -0.5220 H   0  0  0  0  0  0  0  0  0  0  0  0
    1.5743    1.1384   -1.3183 H   0  0  0  0  0  0  0  0  0  0  0  0
    1.9833    2.0802    0.1040 H   0  0  0  0  0  0  0  0  0  0  0  0
   -0.9596   -3.2229    0.3060 H   0  0  0  0  0  0  0  0  0  0  0  0
   -0.9013   -2.5308   -1.3125 H   0  0  0  0  0  0  0  0  0  0  0  0
    1.6330   -3.3117   -0.4749 H   0  0  0  0  0  0  0  0  0  0  0  0
    1.7328   -2.8485    1.2478 H   0  0  0  0  0  0  0  0  0  0  0  0
   -2.8500    1.3261   -1.7646 H   0  0  0  0  0  0  0  0  0  0  0  0
   -2.6767    2.4792   -0.4505 H   0  0  0  0  0  0  0  0  0  0  0  0
   -3.2832   -2.9904   -0.4152 H   0  0  0  0  0  0  0  0  0  0  0  0
    2.2817   -0.8438    2.4979 H   0  0  0  0  0  0  0  0  0  0  0  0
    2.4855    0.8970    2.3457 H   0  0  0  0  0  0  0  0  0  0  0  0
    0.8785    0.2029    2.3669 H   0  0  0  0  0  0  0  0  0  0  0  0
   -2.0881    0.0718    2.3179 H   0  0  0  0  0  0  0  0  0  0  0  0
   -2.1951    1.7764    1.8535 H   0  0  0  0  0  0  0  0  0  0  0  0
   -3.6487    0.8140    2.0010 H   0  0  0  0  0  0  0  0  0  0  0  0
    4.0936   -2.6372   -0.2106 H   0  0  0  0  0  0  0  0  0  0  0  0
   -5.2472   -1.7755   -0.3021 H   0  0  0  0  0  0  0  0  0  0  0  0
   -5.1168   -0.6515    1.0190 H   0  0  0  0  0  0  0  0  0  0  0  0
   -4.9270    1.9638    0.3821 H   0  0  0  0  0  0  0  0  0  0  0  0
   -4.9882    2.3776   -1.3113 H   0  0  0  0  0  0  0  0  0  0  0  0
   -5.1214    0.0043   -1.9720 H   0  0  0  0  0  0  0  0  0  0  0  0
   -7.0047    1.1220   -1.3517 H   0  0  0  0  0  0  0  0  0  0  0  0
    5.4344   -1.2279   -1.6049 H   0  0  0  0  0  0  0  0  0  0  0  0
    4.0315    1.8137    1.1230 H   0  0  0  0  0  0  0  0  0  0  0  0
    7.4453    0.1533   -1.9621 H   0  0  0  0  0  0  0  0  0  0  0  0
    7.6342    2.3309   -0.7481 H   0  0  0  0  0  0  0  0  0  0  0  0
  1 21  1  0  0  0  0
  1 53  1  0  0  0  0
  2 24  2  0  0  0  0
  2 26  1  0  0  0  0
  3  4  1  1  0  0  0
  3  8  1  0  0  0  0
  3 27  1  0  0  0  0
  4  5  1  6  0  0  0
  4 10  1  0  0  0  0
  4 28  1  0  0  0  0
  5  6  1  1  0  0  0
  5 11  1  0  0  0  0
  5 29  1  0  0  0  0
  6  9  1  0  0  0  0
  6 14  1  0  0  0  0
  6 16  1  1  0  0  0
  7  3  1  6  0  0  0
  7 12  1  0  0  0  0
  7 13  1  0  0  0  0
  7 17  1  0  0  0  0
  8  9  1  0  0  0  0
  8 30  1  0  0  0  0
  8 31  1  0  0  0  0
  9 32  1  0  0  0  0
  9 33  1  0  0  0  0
 10 15  1  0  0  0  0
 10 34  1  0  0  0  0
 10 35  1  0  0  0  0
 11 18  1  0  0  0  0
 11 36  1  0  0  0  0
 11 37  1  0  0  0  0
 12 15  2  0  0  0  0
 12 19  1  0  0  0  0
 13 20  1  0  0  0  0
 13 38  1  0  0  0  0
 13 39  1  0  0  0  0
 14 18  2  0  0  0  0
 14 22  1  0  0  0  0
 15 40  1  0  0  0  0
 16 41  1  0  0  0  0
 16 42  1  0  0  0  0
 16 43  1  0  0  0  0
 17 44  1  0  0  0  0
 17 45  1  0  0  0  0
 17 46  1  0  0  0  0
 18 47  1  0  0  0  0
 19 21  1  0  0  0  0
 19 48  1  0  0  0  0
 19 49  1  0  0  0  0
 20 21  1  0  0  0  0
 20 50  1  0  0  0  0
 20 51  1  0  0  0  0
 21 52  1  6  0  0  0
 22 23  2  0  0  0  0
 22 24  1  0  0  0  0
 23 25  1  0  0  0  0
 23 54  1  0  0  0  0
 24 55  1  0  0  0  0
 25 26  2  0  0  0  0
 25 56  1  0  0  0  0
 26 57  1  0  0  0  0
M  END
