DB05351
 OpenBabel07062211533D

 39 41  0  0  1  0  0  0  0  0999 V2000
   -0.8438   -0.7171   -0.9711 S   0  0  2  0  0  0  0  0  0  0  0  0
    4.9137    2.6045   -1.2170 F   0  0  0  0  0  0  0  0  0  0  0  0
    6.7852    1.7653   -1.9595 F   0  0  0  0  0  0  0  0  0  0  0  0
    6.6047    2.3539    0.1373 F   0  0  0  0  0  0  0  0  0  0  0  0
    4.5633    0.5013    0.5544 O   0  0  0  0  0  0  0  0  0  0  0  0
   -0.7863   -2.1369   -1.4999 O   0  0  0  0  0  0  0  0  0  0  0  0
   -3.6081   -0.6988   -1.3851 N   0  0  0  0  0  0  0  0  0  0  0  0
   -2.9272    0.4218    0.4095 N   0  0  0  0  0  0  0  0  0  0  0  0
    1.5921   -2.3959    0.8024 N   0  0  0  0  0  0  0  0  0  0  0  0
   -0.1643   -0.7480    0.7130 C   0  0  0  0  0  0  0  0  0  0  0  0
    1.2993   -1.0822    0.7146 C   0  0  0  0  0  0  0  0  0  0  0  0
    2.2393   -0.0729    0.6295 C   0  0  0  0  0  0  0  0  0  0  0  0
   -2.5472   -0.3020   -0.6195 C   0  0  1  0  0  0  0  0  0  0  0  0
   -4.7486   -0.1974   -0.8121 C   0  0  0  0  0  0  0  0  0  0  0  0
   -4.2972    0.4981    0.3062 C   0  0  0  0  0  0  0  0  0  0  0  0
    3.5808   -0.4386    0.6350 C   0  0  0  0  0  0  0  0  0  0  0  0
    1.8420    1.3616    0.5352 C   0  0  0  0  0  0  0  0  0  0  0  0
   -6.0954   -0.2895   -1.1653 C   0  0  0  0  0  0  0  0  0  0  0  0
    3.9291   -1.7819    0.7245 C   0  0  0  0  0  0  0  0  0  0  0  0
   -5.2306    1.1460    1.1327 C   0  0  0  0  0  0  0  0  0  0  0  0
    2.9063   -2.7130    0.8053 C   0  0  0  0  0  0  0  0  0  0  0  0
   -7.0106    0.3614   -0.3316 C   0  0  0  0  0  0  0  0  0  0  0  0
   -6.5881    1.0669    0.7974 C   0  0  0  0  0  0  0  0  0  0  0  0
    5.4545    0.4139   -0.5558 C   0  0  0  0  0  0  0  0  0  0  0  0
    5.9480    1.7949   -0.9011 C   0  0  0  0  0  0  0  0  0  0  0  0
   -0.7111   -1.5160    1.2736 H   0  0  0  0  0  0  0  0  0  0  0  0
   -0.3700    0.2041    1.2100 H   0  0  0  0  0  0  0  0  0  0  0  0
   -3.5623   -1.2616   -2.2242 H   0  0  0  0  0  0  0  0  0  0  0  0
    1.1555    1.5272   -0.3007 H   0  0  0  0  0  0  0  0  0  0  0  0
    1.3690    1.6893    1.4669 H   0  0  0  0  0  0  0  0  0  0  0  0
    2.6952    2.0252    0.3630 H   0  0  0  0  0  0  0  0  0  0  0  0
   -6.4209   -0.8376   -2.0421 H   0  0  0  0  0  0  0  0  0  0  0  0
    4.9643   -2.1046    0.7396 H   0  0  0  0  0  0  0  0  0  0  0  0
   -4.9123    1.6966    2.0122 H   0  0  0  0  0  0  0  0  0  0  0  0
    3.1248   -3.7733    0.8786 H   0  0  0  0  0  0  0  0  0  0  0  0
   -8.0710    0.3170   -0.5677 H   0  0  0  0  0  0  0  0  0  0  0  0
   -7.3232    1.5625    1.4263 H   0  0  0  0  0  0  0  0  0  0  0  0
    4.9510   -0.0176   -1.4297 H   0  0  0  0  0  0  0  0  0  0  0  0
    6.3000   -0.2270   -0.2845 H   0  0  0  0  0  0  0  0  0  0  0  0
  1  6  2  1  0  0  0
  1 10  1  0  0  0  0
  2 25  1  0  0  0  0
  3 25  1  0  0  0  0
  4 25  1  0  0  0  0
  5 16  1  0  0  0  0
  5 24  1  0  0  0  0
  7 13  1  0  0  0  0
  7 14  2  0  0  0  0
  7 28  1  0  0  0  0
  8 13  1  0  0  0  0
  8 15  2  0  0  0  0
  9 11  2  0  0  0  0
  9 21  1  0  0  0  0
 10 11  1  0  0  0  0
 10 26  1  0  0  0  0
 10 27  1  0  0  0  0
 11 12  1  0  0  0  0
 12 16  2  0  0  0  0
 12 17  1  0  0  0  0
 13  1  1  1  0  0  0
 14 15  1  0  0  0  0
 14 18  1  0  0  0  0
 15 20  1  0  0  0  0
 16 19  1  0  0  0  0
 17 29  1  0  0  0  0
 17 30  1  0  0  0  0
 17 31  1  0  0  0  0
 18 22  2  0  0  0  0
 18 32  1  0  0  0  0
 19 21  2  0  0  0  0
 19 33  1  0  0  0  0
 20 23  2  0  0  0  0
 20 34  1  0  0  0  0
 21 35  1  0  0  0  0
 22 23  1  0  0  0  0
 22 36  1  0  0  0  0
 23 37  1  0  0  0  0
 24 25  1  0  0  0  0
 24 38  1  0  0  0  0
 24 39  1  0  0  0  0
M  END
