DB05316
 OpenBabel07062211533D

 65 67  0  0  0  0  0  0  0  0999 V2000
   -1.2080   -4.9336   -0.2269 F   0  0  0  0  0  0  0  0  0  0  0  0
    1.9305    2.0875    0.7098 O   0  0  0  0  0  0  0  0  0  0  0  0
   -4.8173    1.8028   -0.4329 O   0  0  0  0  0  0  0  0  0  0  0  0
    5.1383    1.0457   -1.9052 N   0  0  0  0  0  0  0  0  0  0  0  0
    2.5652   -0.0791    1.2640 N   0  0  0  0  0  0  0  0  0  0  0  0
    0.7965    1.0162    2.3990 N   0  0  0  0  0  0  0  0  0  0  0  0
    3.6115   -0.1674    0.2760 C   0  0  0  0  0  0  0  0  0  0  0  0
    3.0422   -0.0191   -1.1348 C   0  0  0  0  0  0  0  0  0  0  0  0
    4.6919    0.8859    0.5226 C   0  0  0  0  0  0  0  0  0  0  0  0
    4.1547   -0.0097   -2.1846 C   0  0  0  0  0  0  0  0  0  0  0  0
    5.7502    0.8645   -0.5817 C   0  0  0  0  0  0  0  0  0  0  0  0
    2.3657   -1.2619    2.1073 C   0  0  0  0  0  0  0  0  0  0  0  0
    6.1671    1.0742   -2.9448 C   0  0  0  0  0  0  0  0  0  0  0  0
    1.7755    1.0834    1.4115 C   0  0  0  0  0  0  0  0  0  0  0  0
    1.4126   -2.2411    1.4853 C   0  0  0  0  0  0  0  0  0  0  0  0
   -0.1033    2.1145    2.6701 C   0  0  0  0  0  0  0  0  0  0  0  0
    1.8940   -3.2450    0.6449 C   0  0  0  0  0  0  0  0  0  0  0  0
    0.0457   -2.1468    1.7471 C   0  0  0  0  0  0  0  0  0  0  0  0
   -1.3556    2.0312    1.8461 C   0  0  0  0  0  0  0  0  0  0  0  0
    1.0089   -4.1547    0.0666 C   0  0  0  0  0  0  0  0  0  0  0  0
   -0.8395   -3.0563    1.1687 C   0  0  0  0  0  0  0  0  0  0  0  0
   -0.3580   -4.0603    0.3284 C   0  0  0  0  0  0  0  0  0  0  0  0
   -1.4072    2.6418    0.5929 C   0  0  0  0  0  0  0  0  0  0  0  0
   -2.4675    1.3439    2.3331 C   0  0  0  0  0  0  0  0  0  0  0  0
   -6.3518    0.3174   -1.5762 C   0  0  0  0  0  0  0  0  0  0  0  0
   -3.6819    1.8775    0.3141 C   0  0  0  0  0  0  0  0  0  0  0  0
   -2.5703    2.5649   -0.1731 C   0  0  0  0  0  0  0  0  0  0  0  0
   -3.6306    1.2670    1.5672 C   0  0  0  0  0  0  0  0  0  0  0  0
   -5.6293    0.6417   -0.2657 C   0  0  0  0  0  0  0  0  0  0  0  0
   -5.3585    0.0495   -2.7089 C   0  0  0  0  0  0  0  0  0  0  0  0
   -7.2805   -0.8805   -1.3905 C   0  0  0  0  0  0  0  0  0  0  0  0
    4.0911   -1.1525    0.3405 H   0  0  0  0  0  0  0  0  0  0  0  0
    2.3514   -0.8441   -1.3479 H   0  0  0  0  0  0  0  0  0  0  0  0
    2.4582    0.8995   -1.2531 H   0  0  0  0  0  0  0  0  0  0  0  0
    4.2801    1.8990    0.5786 H   0  0  0  0  0  0  0  0  0  0  0  0
    5.1732    0.7011    1.4913 H   0  0  0  0  0  0  0  0  0  0  0  0
    3.6965    0.1597   -3.1667 H   0  0  0  0  0  0  0  0  0  0  0  0
    4.6375   -0.9954   -2.2174 H   0  0  0  0  0  0  0  0  0  0  0  0
    6.4634    1.6750   -0.3876 H   0  0  0  0  0  0  0  0  0  0  0  0
    6.3108   -0.0787   -0.5359 H   0  0  0  0  0  0  0  0  0  0  0  0
    2.0530   -1.0012    3.1221 H   0  0  0  0  0  0  0  0  0  0  0  0
    3.3410   -1.7422    2.2661 H   0  0  0  0  0  0  0  0  0  0  0  0
    5.7170    1.2590   -3.9265 H   0  0  0  0  0  0  0  0  0  0  0  0
    6.7315    0.1360   -2.9949 H   0  0  0  0  0  0  0  0  0  0  0  0
    6.8732    1.8926   -2.7651 H   0  0  0  0  0  0  0  0  0  0  0  0
    0.7008    0.2192    3.0087 H   0  0  0  0  0  0  0  0  0  0  0  0
    0.4101    3.0667    2.4914 H   0  0  0  0  0  0  0  0  0  0  0  0
   -0.3460    2.0844    3.7386 H   0  0  0  0  0  0  0  0  0  0  0  0
    2.9561   -3.3339    0.4336 H   0  0  0  0  0  0  0  0  0  0  0  0
   -0.3612   -1.3971    2.4147 H   0  0  0  0  0  0  0  0  0  0  0  0
    1.3833   -4.9367   -0.5872 H   0  0  0  0  0  0  0  0  0  0  0  0
   -1.9033   -2.9865    1.3763 H   0  0  0  0  0  0  0  0  0  0  0  0
   -0.5514    3.1847    0.2017 H   0  0  0  0  0  0  0  0  0  0  0  0
   -2.4403    0.8675    3.3096 H   0  0  0  0  0  0  0  0  0  0  0  0
   -6.9532    1.1882   -1.8671 H   0  0  0  0  0  0  0  0  0  0  0  0
   -2.6051    3.0429   -1.1483 H   0  0  0  0  0  0  0  0  0  0  0  0
   -4.4822    0.7475    1.9964 H   0  0  0  0  0  0  0  0  0  0  0  0
   -6.3625    0.8403    0.5250 H   0  0  0  0  0  0  0  0  0  0  0  0
   -5.0304   -0.2355    0.0144 H   0  0  0  0  0  0  0  0  0  0  0  0
   -4.7317    0.9260   -2.9023 H   0  0  0  0  0  0  0  0  0  0  0  0
   -4.6999   -0.7921   -2.4684 H   0  0  0  0  0  0  0  0  0  0  0  0
   -5.8864   -0.1893   -3.6384 H   0  0  0  0  0  0  0  0  0  0  0  0
   -6.7206   -1.7798   -1.1117 H   0  0  0  0  0  0  0  0  0  0  0  0
   -7.8274   -1.0957   -2.3146 H   0  0  0  0  0  0  0  0  0  0  0  0
   -8.0176   -0.6829   -0.6050 H   0  0  0  0  0  0  0  0  0  0  0  0
  1 22  1  0  0  0  0
  2 14  2  0  0  0  0
  3 26  1  0  0  0  0
  3 29  1  0  0  0  0
  4 10  1  0  0  0  0
  4 11  1  0  0  0  0
  4 13  1  0  0  0  0
  5  7  1  0  0  0  0
  5 12  1  0  0  0  0
  5 14  1  0  0  0  0
  6 14  1  0  0  0  0
  6 16  1  0  0  0  0
  6 46  1  0  0  0  0
  7  8  1  0  0  0  0
  7  9  1  0  0  0  0
  7 32  1  0  0  0  0
  8 10  1  0  0  0  0
  8 33  1  0  0  0  0
  8 34  1  0  0  0  0
  9 11  1  0  0  0  0
  9 35  1  0  0  0  0
  9 36  1  0  0  0  0
 10 37  1  0  0  0  0
 10 38  1  0  0  0  0
 11 39  1  0  0  0  0
 11 40  1  0  0  0  0
 12 15  1  0  0  0  0
 12 41  1  0  0  0  0
 12 42  1  0  0  0  0
 13 43  1  0  0  0  0
 13 44  1  0  0  0  0
 13 45  1  0  0  0  0
 15 17  2  0  0  0  0
 15 18  1  0  0  0  0
 16 19  1  0  0  0  0
 16 47  1  0  0  0  0
 16 48  1  0  0  0  0
 17 20  1  0  0  0  0
 17 49  1  0  0  0  0
 18 21  2  0  0  0  0
 18 50  1  0  0  0  0
 19 23  2  0  0  0  0
 19 24  1  0  0  0  0
 20 22  2  0  0  0  0
 20 51  1  0  0  0  0
 21 22  1  0  0  0  0
 21 52  1  0  0  0  0
 23 27  1  0  0  0  0
 23 53  1  0  0  0  0
 24 28  2  0  0  0  0
 24 54  1  0  0  0  0
 25 29  1  0  0  0  0
 25 30  1  0  0  0  0
 25 31  1  0  0  0  0
 25 55  1  0  0  0  0
 26 27  2  0  0  0  0
 26 28  1  0  0  0  0
 27 56  1  0  0  0  0
 28 57  1  0  0  0  0
 29 58  1  0  0  0  0
 29 59  1  0  0  0  0
 30 60  1  0  0  0  0
 30 61  1  0  0  0  0
 30 62  1  0  0  0  0
 31 63  1  0  0  0  0
 31 64  1  0  0  0  0
 31 65  1  0  0  0  0
M  END
