DB06807
 OpenBabel07062211533D

 28 29  0  0  0  0  0  0  0  0999 V2000
    0.8985    0.4578   -0.4251 O   0  0  0  0  0  0  0  0  0  0  0  0
   -1.7295   -2.4346    0.8726 O   0  0  0  0  0  0  0  0  0  0  0  0
    0.6606   -1.1546    1.2420 O   0  0  0  0  0  0  0  0  0  0  0  0
   -5.3802    0.4588   -0.3169 N   0  0  0  0  0  0  0  0  0  0  0  0
   -1.2646   -0.1686    0.2381 C   0  0  0  0  0  0  0  0  0  0  0  0
   -2.1657   -1.2082    0.4684 C   0  0  0  0  0  0  0  0  0  0  0  0
   -1.7301    1.0792   -0.1763 C   0  0  0  0  0  0  0  0  0  0  0  0
   -3.9982    0.2480   -0.1305 C   0  0  0  0  0  0  0  0  0  0  0  0
   -3.5327   -0.9999    0.2840 C   0  0  0  0  0  0  0  0  0  0  0  0
   -3.0969    1.2875   -0.3606 C   0  0  0  0  0  0  0  0  0  0  0  0
    0.1663   -0.3655    0.4264 C   0  0  0  0  0  0  0  0  0  0  0  0
    2.2835    0.3213   -0.2983 C   0  0  0  0  0  0  0  0  0  0  0  0
    2.9306   -0.6081   -1.0816 C   0  0  0  0  0  0  0  0  0  0  0  0
    2.9463    1.1215    0.6053 C   0  0  0  0  0  0  0  0  0  0  0  0
    4.3129   -0.7447   -0.9544 C   0  0  0  0  0  0  0  0  0  0  0  0
    4.3287    0.9850    0.7323 C   0  0  0  0  0  0  0  0  0  0  0  0
    5.0119    0.0517   -0.0476 C   0  0  0  0  0  0  0  0  0  0  0  0
   -1.0566    1.9144   -0.3495 H   0  0  0  0  0  0  0  0  0  0  0  0
   -4.2308   -1.8142    0.4648 H   0  0  0  0  0  0  0  0  0  0  0  0
   -3.4480    2.2652   -0.6806 H   0  0  0  0  0  0  0  0  0  0  0  0
    2.3863   -1.2275   -1.7876 H   0  0  0  0  0  0  0  0  0  0  0  0
    2.4143    1.8479    1.2116 H   0  0  0  0  0  0  0  0  0  0  0  0
    4.8449   -1.4713   -1.5616 H   0  0  0  0  0  0  0  0  0  0  0  0
    4.8731    1.6052    1.4384 H   0  0  0  0  0  0  0  0  0  0  0  0
    6.0882   -0.0547    0.0515 H   0  0  0  0  0  0  0  0  0  0  0  0
   -5.7183    1.3632   -0.6180 H   0  0  0  0  0  0  0  0  0  0  0  0
   -6.0343   -0.2944   -0.1508 H   0  0  0  0  0  0  0  0  0  0  0  0
   -0.7601   -2.4606    0.9039 H   0  0  0  0  0  0  0  0  0  0  0  0
  1 11  1  0  0  0  0
  1 12  1  0  0  0  0
  2  6  1  0  0  0  0
  2 28  1  0  0  0  0
  3 11  2  0  0  0  0
  4  8  1  0  0  0  0
  4 26  1  0  0  0  0
  4 27  1  0  0  0  0
  5  6  2  0  0  0  0
  5  7  1  0  0  0  0
  5 11  1  0  0  0  0
  6  9  1  0  0  0  0
  7 10  2  0  0  0  0
  7 18  1  0  0  0  0
  8  9  2  0  0  0  0
  8 10  1  0  0  0  0
  9 19  1  0  0  0  0
 10 20  1  0  0  0  0
 12 13  2  0  0  0  0
 12 14  1  0  0  0  0
 13 15  1  0  0  0  0
 13 21  1  0  0  0  0
 14 16  2  0  0  0  0
 14 22  1  0  0  0  0
 15 17  2  0  0  0  0
 15 23  1  0  0  0  0
 16 17  1  0  0  0  0
 16 24  1  0  0  0  0
 17 25  1  0  0  0  0
M  END
