DB06608
 OpenBabel07062211533D

 61 63  0  0  1  0  0  0  0  0999 V2000
    5.0686   -1.4938    4.1289 F   0  0  0  0  0  0  0  0  0  0  0  0
    4.1439    0.4595    3.9465 F   0  0  0  0  0  0  0  0  0  0  0  0
    2.9649   -1.3350    3.6020 F   0  0  0  0  0  0  0  0  0  0  0  0
    3.2543    0.6669   -1.2253 O   0  0  0  0  0  0  0  0  0  0  0  0
    2.2476   -1.8367   -1.5230 O   0  0  0  0  0  0  0  0  0  0  0  0
   -1.6416    4.5907   -0.1118 O   0  0  0  0  0  0  0  0  0  0  0  0
   -2.1797   -0.2315   -0.8229 N   0  0  0  0  0  0  0  0  0  0  0  0
   -1.2281    2.3431   -0.5100 N   0  0  0  0  0  0  0  0  0  0  0  0
   -5.5216   -0.8951    3.1310 N   0  0  0  0  0  0  0  0  0  0  0  0
   -2.7430   -1.5567   -0.9772 C   0  0  1  0  0  0  0  0  0  0  0  0
   -4.1411   -1.6164   -0.3471 C   0  0  0  0  0  0  0  0  0  0  0  0
   -4.1339   -1.2335    1.1381 C   0  0  0  0  0  0  0  0  0  0  0  0
   -0.8265    0.0399   -0.9164 C   0  0  0  0  0  0  0  0  0  0  0  0
   -2.8005   -1.8909   -2.4642 C   0  0  0  0  0  0  0  0  0  0  0  0
   -0.3615    1.3423   -0.7557 C   0  0  0  0  0  0  0  0  0  0  0  0
    1.0269    1.5685   -0.8592 C   0  0  0  0  0  0  0  0  0  0  0  0
   -5.5492   -1.2414    1.7147 C   0  0  0  0  0  0  0  0  0  0  0  0
    0.0440   -1.0222   -1.1728 C   0  0  0  0  0  0  0  0  0  0  0  0
    1.9027    0.5003   -1.1171 C   0  0  0  0  0  0  0  0  0  0  0  0
    1.4955    2.8793   -0.6982 C   0  0  0  0  0  0  0  0  0  0  0  0
    1.4103   -0.7921   -1.2735 C   0  0  0  0  0  0  0  0  0  0  0  0
    0.6049    3.9127   -0.4447 C   0  0  0  0  0  0  0  0  0  0  0  0
   -0.7352    3.5938   -0.3608 C   0  0  0  0  0  0  0  0  0  0  0  0
    2.9387    3.2688   -0.7799 C   0  0  0  0  0  0  0  0  0  0  0  0
    4.0560   -0.0227   -0.3349 C   0  0  0  0  0  0  0  0  0  0  0  0
    3.7286   -0.0515    1.0207 C   0  0  0  0  0  0  0  0  0  0  0  0
    1.6523   -3.1248   -1.6684 C   0  0  0  0  0  0  0  0  0  0  0  0
    5.1928   -0.6893   -0.7920 C   0  0  0  0  0  0  0  0  0  0  0  0
    4.5381   -0.7465    1.9191 C   0  0  0  0  0  0  0  0  0  0  0  0
    6.0023   -1.3846    0.1063 C   0  0  0  0  0  0  0  0  0  0  0  0
    5.6749   -1.4132    1.4618 C   0  0  0  0  0  0  0  0  0  0  0  0
   -3.0095    4.2076   -0.0352 C   0  0  0  0  0  0  0  0  0  0  0  0
    4.1887   -0.7772    3.3684 C   0  0  0  0  0  0  0  0  0  0  0  0
   -2.1529   -2.3103   -0.4424 H   0  0  0  0  0  0  0  0  0  0  0  0
   -4.5520   -2.6273   -0.4618 H   0  0  0  0  0  0  0  0  0  0  0  0
   -4.8155   -0.9368   -0.8846 H   0  0  0  0  0  0  0  0  0  0  0  0
   -2.8112    0.5590   -0.7485 H   0  0  0  0  0  0  0  0  0  0  0  0
   -3.5005   -1.9386    1.6911 H   0  0  0  0  0  0  0  0  0  0  0  0
   -3.7008   -0.2355    1.2749 H   0  0  0  0  0  0  0  0  0  0  0  0
   -1.8219   -1.8846   -2.9515 H   0  0  0  0  0  0  0  0  0  0  0  0
   -3.2323   -2.8865   -2.6147 H   0  0  0  0  0  0  0  0  0  0  0  0
   -3.4299   -1.1726   -3.0032 H   0  0  0  0  0  0  0  0  0  0  0  0
   -6.1812   -0.5250    1.1784 H   0  0  0  0  0  0  0  0  0  0  0  0
   -5.9973   -2.2340    1.5992 H   0  0  0  0  0  0  0  0  0  0  0  0
   -0.3462   -2.0218   -1.2798 H   0  0  0  0  0  0  0  0  0  0  0  0
    0.9330    4.9386   -0.3138 H   0  0  0  0  0  0  0  0  0  0  0  0
    3.0689    4.3540   -0.6845 H   0  0  0  0  0  0  0  0  0  0  0  0
    3.3670    3.0092   -1.7532 H   0  0  0  0  0  0  0  0  0  0  0  0
    3.5146    2.8275    0.0380 H   0  0  0  0  0  0  0  0  0  0  0  0
   -5.1329    0.0397    3.2485 H   0  0  0  0  0  0  0  0  0  0  0  0
   -6.4754   -0.8547    3.4875 H   0  0  0  0  0  0  0  0  0  0  0  0
    2.8560    0.4756    1.3982 H   0  0  0  0  0  0  0  0  0  0  0  0
    2.4656   -3.8314   -1.8658 H   0  0  0  0  0  0  0  0  0  0  0  0
    0.9826   -3.1677   -2.5343 H   0  0  0  0  0  0  0  0  0  0  0  0
    1.1686   -3.4547   -0.7425 H   0  0  0  0  0  0  0  0  0  0  0  0
    5.4519   -0.6704   -1.8470 H   0  0  0  0  0  0  0  0  0  0  0  0
    6.8871   -1.9037   -0.2501 H   0  0  0  0  0  0  0  0  0  0  0  0
    6.3178   -1.9601    2.1460 H   0  0  0  0  0  0  0  0  0  0  0  0
   -3.6000    5.1061    0.1673 H   0  0  0  0  0  0  0  0  0  0  0  0
   -3.1748    3.5028    0.7867 H   0  0  0  0  0  0  0  0  0  0  0  0
   -3.3529    3.7853   -0.9856 H   0  0  0  0  0  0  0  0  0  0  0  0
  1 33  1  0  0  0  0
  2 33  1  0  0  0  0
  3 33  1  0  0  0  0
  4 19  1  0  0  0  0
  4 25  1  0  0  0  0
  5 21  1  0  0  0  0
  5 27  1  0  0  0  0
  6 23  1  0  0  0  0
  6 32  1  0  0  0  0
  7 10  1  0  0  0  0
  7 13  1  0  0  0  0
  7 37  1  0  0  0  0
  8 15  2  0  0  0  0
  8 23  1  0  0  0  0
  9 17  1  0  0  0  0
  9 50  1  0  0  0  0
  9 51  1  0  0  0  0
 10 11  1  0  0  0  0
 10 14  1  0  0  0  0
 10 34  1  1  0  0  0
 11 12  1  0  0  0  0
 11 35  1  0  0  0  0
 11 36  1  0  0  0  0
 12 17  1  0  0  0  0
 12 38  1  0  0  0  0
 12 39  1  0  0  0  0
 13 15  1  0  0  0  0
 13 18  2  0  0  0  0
 14 40  1  0  0  0  0
 14 41  1  0  0  0  0
 14 42  1  0  0  0  0
 15 16  1  0  0  0  0
 16 19  1  0  0  0  0
 16 20  2  0  0  0  0
 17 43  1  0  0  0  0
 17 44  1  0  0  0  0
 18 21  1  0  0  0  0
 18 45  1  0  0  0  0
 19 21  2  0  0  0  0
 20 22  1  0  0  0  0
 20 24  1  0  0  0  0
 22 23  2  0  0  0  0
 22 46  1  0  0  0  0
 24 47  1  0  0  0  0
 24 48  1  0  0  0  0
 24 49  1  0  0  0  0
 25 26  2  0  0  0  0
 25 28  1  0  0  0  0
 26 29  1  0  0  0  0
 26 52  1  0  0  0  0
 27 53  1  0  0  0  0
 27 54  1  0  0  0  0
 27 55  1  0  0  0  0
 28 30  2  0  0  0  0
 28 56  1  0  0  0  0
 29 31  2  0  0  0  0
 29 33  1  0  0  0  0
 30 31  1  0  0  0  0
 30 57  1  0  0  0  0
 31 58  1  0  0  0  0
 32 59  1  0  0  0  0
 32 60  1  0  0  0  0
 32 61  1  0  0  0  0
M  END
