DB06700
 OpenBabel07062211533D

 44 45  0  0  1  0  0  0  0  0999 V2000
   -1.1759    0.4867   -1.5850 O   0  0  0  0  0  0  0  0  0  0  0  0
    3.9016    3.7951   -0.5656 O   0  0  0  0  0  0  0  0  0  0  0  0
    1.9161   -2.0727    0.0247 N   0  0  0  0  0  0  0  0  0  0  0  0
   -1.2545    0.1073   -0.2077 C   0  0  0  0  0  0  0  0  0  0  0  0
    0.1416   -0.3346    0.2349 C   0  0  1  0  0  0  0  0  0  0  0  0
   -1.7084    1.3353    0.5967 C   0  0  0  0  0  0  0  0  0  0  0  0
   -2.2614   -1.0452   -0.0622 C   0  0  0  0  0  0  0  0  0  0  0  0
   -3.1380    1.7582    0.2533 C   0  0  0  0  0  0  0  0  0  0  0  0
   -3.6882   -0.6147   -0.4059 C   0  0  0  0  0  0  0  0  0  0  0  0
   -4.1193    0.6009    0.4081 C   0  0  0  0  0  0  0  0  0  0  0  0
    0.6110   -1.6313   -0.4587 C   0  0  0  0  0  0  0  0  0  0  0  0
    1.1570    0.7801    0.0186 C   0  0  0  0  0  0  0  0  0  0  0  0
    1.7982    1.3180    1.1147 C   0  0  0  0  0  0  0  0  0  0  0  0
    1.4023    1.2164   -1.2664 C   0  0  0  0  0  0  0  0  0  0  0  0
    2.3590   -3.2612   -0.7050 C   0  0  0  0  0  0  0  0  0  0  0  0
    1.8659   -2.3465    1.4614 C   0  0  0  0  0  0  0  0  0  0  0  0
    2.7274    2.3394    0.9165 C   0  0  0  0  0  0  0  0  0  0  0  0
    2.3315    2.2377   -1.4646 C   0  0  0  0  0  0  0  0  0  0  0  0
    2.9940    2.7992   -0.3731 C   0  0  0  0  0  0  0  0  0  0  0  0
    0.0543   -0.5305    1.3115 H   0  0  0  0  0  0  0  0  0  0  0  0
   -1.0672    2.2019    0.3978 H   0  0  0  0  0  0  0  0  0  0  0  0
   -1.6519    1.1242    1.6721 H   0  0  0  0  0  0  0  0  0  0  0  0
   -2.2416   -1.4398    0.9612 H   0  0  0  0  0  0  0  0  0  0  0  0
   -2.0304   -1.8699   -0.7448 H   0  0  0  0  0  0  0  0  0  0  0  0
   -3.1757    2.1350   -0.7761 H   0  0  0  0  0  0  0  0  0  0  0  0
   -3.4413    2.5862    0.9044 H   0  0  0  0  0  0  0  0  0  0  0  0
   -4.3775   -1.4456   -0.2173 H   0  0  0  0  0  0  0  0  0  0  0  0
   -3.7583   -0.3820   -1.4756 H   0  0  0  0  0  0  0  0  0  0  0  0
   -4.1917    0.3236    1.4669 H   0  0  0  0  0  0  0  0  0  0  0  0
   -5.1189    0.9203    0.0929 H   0  0  0  0  0  0  0  0  0  0  0  0
   -0.1063   -2.4415   -0.2881 H   0  0  0  0  0  0  0  0  0  0  0  0
    0.6616   -1.4845   -1.5445 H   0  0  0  0  0  0  0  0  0  0  0  0
   -1.1353   -0.3195   -2.1264 H   0  0  0  0  0  0  0  0  0  0  0  0
    1.5939    0.9760    2.1244 H   0  0  0  0  0  0  0  0  0  0  0  0
    0.9719    0.7672   -2.1528 H   0  0  0  0  0  0  0  0  0  0  0  0
    2.4292   -3.0510   -1.7781 H   0  0  0  0  0  0  0  0  0  0  0  0
    1.6821   -4.1115   -0.5628 H   0  0  0  0  0  0  0  0  0  0  0  0
    3.3619   -3.5606   -0.3809 H   0  0  0  0  0  0  0  0  0  0  0  0
    2.8061   -2.8065    1.7901 H   0  0  0  0  0  0  0  0  0  0  0  0
    1.0541   -3.0336    1.7274 H   0  0  0  0  0  0  0  0  0  0  0  0
    1.7763   -1.4405    2.0643 H   0  0  0  0  0  0  0  0  0  0  0  0
    3.2354    2.7697    1.7754 H   0  0  0  0  0  0  0  0  0  0  0  0
    2.5473    2.5811   -2.4728 H   0  0  0  0  0  0  0  0  0  0  0  0
    4.2622    4.0639    0.2968 H   0  0  0  0  0  0  0  0  0  0  0  0
  1  4  1  0  0  0  0
  1 33  1  0  0  0  0
  2 19  1  0  0  0  0
  2 44  1  0  0  0  0
  3 11  1  0  0  0  0
  3 15  1  0  0  0  0
  3 16  1  0  0  0  0
  4  5  1  0  0  0  0
  4  6  1  0  0  0  0
  4  7  1  0  0  0  0
  5 11  1  0  0  0  0
  5 12  1  0  0  0  0
  5 20  1  1  0  0  0
  6  8  1  0  0  0  0
  6 21  1  0  0  0  0
  6 22  1  0  0  0  0
  7  9  1  0  0  0  0
  7 23  1  0  0  0  0
  7 24  1  0  0  0  0
  8 10  1  0  0  0  0
  8 25  1  0  0  0  0
  8 26  1  0  0  0  0
  9 10  1  0  0  0  0
  9 27  1  0  0  0  0
  9 28  1  0  0  0  0
 10 29  1  0  0  0  0
 10 30  1  0  0  0  0
 11 31  1  0  0  0  0
 11 32  1  0  0  0  0
 12 13  2  0  0  0  0
 12 14  1  0  0  0  0
 13 17  1  0  0  0  0
 13 34  1  0  0  0  0
 14 18  2  0  0  0  0
 14 35  1  0  0  0  0
 15 36  1  0  0  0  0
 15 37  1  0  0  0  0
 15 38  1  0  0  0  0
 16 39  1  0  0  0  0
 16 40  1  0  0  0  0
 16 41  1  0  0  0  0
 17 19  2  0  0  0  0
 17 42  1  0  0  0  0
 18 19  1  0  0  0  0
 18 43  1  0  0  0  0
M  END
