DB06230
 OpenBabel07062211533D

 50 55  0  0  1  0  0  0  0  0999 V2000
   -3.0443   -0.2184   -1.6437 O   0  0  0  0  0  0  0  0  0  0  0  0
   -0.1313    2.5482    0.4053 O   0  0  0  0  0  0  0  0  0  0  0  0
   -4.0926   -2.9217   -1.4973 O   0  0  0  0  0  0  0  0  0  0  0  0
    1.8188    0.5765    0.2293 N   0  0  0  0  0  0  0  0  0  0  0  0
   -0.9607    0.5196   -0.6077 C   0  0  1  0  0  0  0  0  0  0  0  0
   -0.5239    1.1979    0.7020 C   0  0  1  0  0  0  0  0  0  0  0  0
    0.7246    0.3954    1.2162 C   0  0  1  0  0  0  0  0  0  0  0  0
   -2.2995    0.9779   -1.2296 C   0  0  2  0  0  0  0  0  0  0  0  0
    0.1833    0.5532   -1.6483 C   0  0  0  0  0  0  0  0  0  0  0  0
   -1.3238   -0.8875   -0.2909 C   0  0  0  0  0  0  0  0  0  0  0  0
   -1.6588    1.3025    1.7565 C   0  0  0  0  0  0  0  0  0  0  0  0
    0.3819   -1.1112    1.5142 C   0  0  0  0  0  0  0  0  0  0  0  0
    1.5160    0.0270   -1.0945 C   0  0  0  0  0  0  0  0  0  0  0  0
   -0.6956   -1.6997    0.6370 C   0  0  0  0  0  0  0  0  0  0  0  0
   -3.0844    1.3904    1.1789 C   0  0  0  0  0  0  0  0  0  0  0  0
    3.1199    0.1255    0.7119 C   0  0  0  0  0  0  0  0  0  0  0  0
   -3.1269    1.8048   -0.2668 C   0  0  0  0  0  0  0  0  0  0  0  0
    4.2104    0.5486   -0.2535 C   0  0  0  0  0  0  0  0  0  0  0  0
   -2.4696   -1.2583   -0.9590 C   0  0  0  0  0  0  0  0  0  0  0  0
    5.6101    0.1670    0.0612 C   0  0  0  0  0  0  0  0  0  0  0  0
    4.8757   -0.5036   -1.0625 C   0  0  0  0  0  0  0  0  0  0  0  0
   -1.1914   -2.9961    0.7804 C   0  0  0  0  0  0  0  0  0  0  0  0
   -2.9743   -2.5338   -0.8343 C   0  0  0  0  0  0  0  0  0  0  0  0
   -3.8108    2.8850   -0.6733 C   0  0  0  0  0  0  0  0  0  0  0  0
   -2.3114   -3.4140    0.0325 C   0  0  0  0  0  0  0  0  0  0  0  0
    1.0620    0.8651    2.1500 H   0  0  0  0  0  0  0  0  0  0  0  0
   -2.1176    1.5584   -2.1434 H   0  0  0  0  0  0  0  0  0  0  0  0
    0.3269    1.5844   -1.9974 H   0  0  0  0  0  0  0  0  0  0  0  0
   -0.0800   -0.0341   -2.5382 H   0  0  0  0  0  0  0  0  0  0  0  0
   -1.4854    2.1942    2.3744 H   0  0  0  0  0  0  0  0  0  0  0  0
   -1.6400    0.4582    2.4544 H   0  0  0  0  0  0  0  0  0  0  0  0
    0.0224   -1.1657    2.5505 H   0  0  0  0  0  0  0  0  0  0  0  0
    1.2699   -1.7485    1.4702 H   0  0  0  0  0  0  0  0  0  0  0  0
    1.5045   -1.0699   -1.0730 H   0  0  0  0  0  0  0  0  0  0  0  0
    2.2775    0.3107   -1.8294 H   0  0  0  0  0  0  0  0  0  0  0  0
    3.3352    0.6060    1.6741 H   0  0  0  0  0  0  0  0  0  0  0  0
    3.1526   -0.9573    0.8749 H   0  0  0  0  0  0  0  0  0  0  0  0
   -3.6783    2.0657    1.8075 H   0  0  0  0  0  0  0  0  0  0  0  0
   -3.5688    0.4099    1.2710 H   0  0  0  0  0  0  0  0  0  0  0  0
    4.0715    1.5399   -0.6681 H   0  0  0  0  0  0  0  0  0  0  0  0
    0.7544    2.5313    0.0060 H   0  0  0  0  0  0  0  0  0  0  0  0
    5.8062   -0.4156    0.9529 H   0  0  0  0  0  0  0  0  0  0  0  0
    6.3977    0.8638   -0.1985 H   0  0  0  0  0  0  0  0  0  0  0  0
    5.1658   -0.2528   -2.0756 H   0  0  0  0  0  0  0  0  0  0  0  0
    4.5878   -1.5389   -0.9280 H   0  0  0  0  0  0  0  0  0  0  0  0
   -0.7385   -3.6826    1.4906 H   0  0  0  0  0  0  0  0  0  0  0  0
   -3.8171    3.1892   -1.7147 H   0  0  0  0  0  0  0  0  0  0  0  0
   -4.3816    3.4879    0.0251 H   0  0  0  0  0  0  0  0  0  0  0  0
   -2.6815   -4.4276    0.1700 H   0  0  0  0  0  0  0  0  0  0  0  0
   -4.2870   -3.8470   -1.2695 H   0  0  0  0  0  0  0  0  0  0  0  0
  1  8  1  0  0  0  0
  1 19  1  0  0  0  0
  2  6  1  0  0  0  0
  2 41  1  0  0  0  0
  3 23  1  0  0  0  0
  3 50  1  0  0  0  0
  4  7  1  0  0  0  0
  4 13  1  0  0  0  0
  4 16  1  0  0  0  0
  5  6  1  1  0  0  0
  5  9  1  0  0  0  0
  5 10  1  0  0  0  0
  6  7  1  1  0  0  0
  6 11  1  0  0  0  0
  7 12  1  0  0  0  0
  7 26  1  1  0  0  0
  8  5  1  1  0  0  0
  8 17  1  0  0  0  0
  8 27  1  0  0  0  0
  9 13  1  0  0  0  0
  9 28  1  0  0  0  0
  9 29  1  0  0  0  0
 10 14  2  0  0  0  0
 10 19  1  0  0  0  0
 11 15  1  0  0  0  0
 11 30  1  0  0  0  0
 11 31  1  0  0  0  0
 12 14  1  0  0  0  0
 12 32  1  0  0  0  0
 12 33  1  0  0  0  0
 13 34  1  0  0  0  0
 13 35  1  0  0  0  0
 14 22  1  0  0  0  0
 15 17  1  0  0  0  0
 15 38  1  0  0  0  0
 15 39  1  0  0  0  0
 16 18  1  0  0  0  0
 16 36  1  0  0  0  0
 16 37  1  0  0  0  0
 17 24  2  0  0  0  0
 18 20  1  0  0  0  0
 18 21  1  0  0  0  0
 18 40  1  0  0  0  0
 19 23  2  0  0  0  0
 20 21  1  0  0  0  0
 20 42  1  0  0  0  0
 20 43  1  0  0  0  0
 21 44  1  0  0  0  0
 21 45  1  0  0  0  0
 22 25  2  0  0  0  0
 22 46  1  0  0  0  0
 23 25  1  0  0  0  0
 24 47  1  0  0  0  0
 24 48  1  0  0  0  0
 25 49  1  0  0  0  0
M  END
