DB06218
 OpenBabel07062211533D

 36 36  0  0  1  0  0  0  0  0999 V2000
   -1.2447   -1.8939    0.2449 O   0  0  0  0  0  0  0  0  0  0  0  0
   -0.4674    0.8590    1.5310 O   0  0  0  0  0  0  0  0  0  0  0  0
   -4.3302    0.8342   -1.5550 O   0  0  0  0  0  0  0  0  0  0  0  0
    0.4626    1.5227   -0.4890 N   0  0  0  0  0  0  0  0  0  0  0  0
   -2.8763    0.5021    0.2334 N   0  0  0  0  0  0  0  0  0  0  0  0
   -1.6582    0.3634   -0.5221 C   0  0  2  0  0  0  0  0  0  0  0  0
   -1.3986   -1.0868   -0.9171 C   0  0  0  0  0  0  0  0  0  0  0  0
   -0.5158    0.9420    0.3054 C   0  0  0  0  0  0  0  0  0  0  0  0
    1.6683    2.1041    0.0541 C   0  0  0  0  0  0  0  0  0  0  0  0
    2.7794    1.0997    0.1569 C   0  0  0  0  0  0  0  0  0  0  0  0
   -4.1142    0.7268   -0.3507 C   0  0  0  0  0  0  0  0  0  0  0  0
    2.9251    0.3517    1.3194 C   0  0  0  0  0  0  0  0  0  0  0  0
    3.6519    0.9277   -0.9115 C   0  0  0  0  0  0  0  0  0  0  0  0
    3.9578   -0.5812    1.4150 C   0  0  0  0  0  0  0  0  0  0  0  0
    4.6845   -0.0052   -0.8160 C   0  0  0  0  0  0  0  0  0  0  0  0
   -5.2223    0.8063    0.6651 C   0  0  0  0  0  0  0  0  0  0  0  0
    4.8374   -0.7596    0.3474 C   0  0  0  0  0  0  0  0  0  0  0  0
   -1.0364   -3.2578   -0.0934 C   0  0  0  0  0  0  0  0  0  0  0  0
   -1.7679    0.9570   -1.4384 H   0  0  0  0  0  0  0  0  0  0  0  0
   -2.2362   -1.4674   -1.5142 H   0  0  0  0  0  0  0  0  0  0  0  0
   -0.4835   -1.1503   -1.5181 H   0  0  0  0  0  0  0  0  0  0  0  0
    1.4538    2.5390    1.0377 H   0  0  0  0  0  0  0  0  0  0  0  0
    1.9577    2.9331   -0.6017 H   0  0  0  0  0  0  0  0  0  0  0  0
   -2.8254    0.3983    1.2432 H   0  0  0  0  0  0  0  0  0  0  0  0
    0.3558    1.5162   -1.4992 H   0  0  0  0  0  0  0  0  0  0  0  0
    2.2493    0.4831    2.1596 H   0  0  0  0  0  0  0  0  0  0  0  0
    3.5410    1.5086   -1.8229 H   0  0  0  0  0  0  0  0  0  0  0  0
    4.0773   -1.1682    2.3210 H   0  0  0  0  0  0  0  0  0  0  0  0
    5.3692   -0.1446   -1.6474 H   0  0  0  0  0  0  0  0  0  0  0  0
   -6.1223    1.2142    0.1968 H   0  0  0  0  0  0  0  0  0  0  0  0
   -5.4369   -0.1950    1.0481 H   0  0  0  0  0  0  0  0  0  0  0  0
   -4.9331    1.4593    1.4936 H   0  0  0  0  0  0  0  0  0  0  0  0
    5.6414   -1.4860    0.4218 H   0  0  0  0  0  0  0  0  0  0  0  0
   -1.8974   -3.6537   -0.6406 H   0  0  0  0  0  0  0  0  0  0  0  0
   -0.1257   -3.3708   -0.6894 H   0  0  0  0  0  0  0  0  0  0  0  0
   -0.9201   -3.8279    0.8322 H   0  0  0  0  0  0  0  0  0  0  0  0
  1  7  1  0  0  0  0
  1 18  1  0  0  0  0
  2  8  2  0  0  0  0
  3 11  2  0  0  0  0
  4  8  1  0  0  0  0
  4  9  1  0  0  0  0
  4 25  1  0  0  0  0
  5  6  1  0  0  0  0
  5 11  1  0  0  0  0
  5 24  1  0  0  0  0
  6  7  1  0  0  0  0
  6  8  1  0  0  0  0
  6 19  1  6  0  0  0
  7 20  1  0  0  0  0
  7 21  1  0  0  0  0
  9 10  1  0  0  0  0
  9 22  1  0  0  0  0
  9 23  1  0  0  0  0
 10 12  2  0  0  0  0
 10 13  1  0  0  0  0
 11 16  1  0  0  0  0
 12 14  1  0  0  0  0
 12 26  1  0  0  0  0
 13 15  2  0  0  0  0
 13 27  1  0  0  0  0
 14 17  2  0  0  0  0
 14 28  1  0  0  0  0
 15 17  1  0  0  0  0
 15 29  1  0  0  0  0
 16 30  1  0  0  0  0
 16 31  1  0  0  0  0
 16 32  1  0  0  0  0
 17 33  1  0  0  0  0
 18 34  1  0  0  0  0
 18 35  1  0  0  0  0
 18 36  1  0  0  0  0
M  END
