DB06401
 OpenBabel07062211533D

 69 73  0  0  1  0  0  0  0  0999 V2000
    1.8628   -2.2159    0.8158 O   0  0  0  0  0  0  0  0  0  0  0  0
   -7.5832   -3.7058   -1.4918 O   0  0  0  0  0  0  0  0  0  0  0  0
   -1.2474    5.6859    0.3218 O   0  0  0  0  0  0  0  0  0  0  0  0
    5.1151   -0.9119   -0.3326 N   0  0  0  0  0  0  0  0  0  0  0  0
   -4.1014   -0.0796    0.6663 N   0  0  0  0  0  0  0  0  0  0  0  0
    5.7547   -0.7216    0.9736 C   0  0  0  0  0  0  0  0  0  0  0  0
    6.0314   -1.3221   -1.3979 C   0  0  0  0  0  0  0  0  0  0  0  0
    7.1021    0.0063    0.9968 C   0  0  0  0  0  0  0  0  0  0  0  0
    6.5867   -0.0982   -2.1320 C   0  0  0  0  0  0  0  0  0  0  0  0
    7.2140    1.1734    0.0211 C   0  0  0  0  0  0  0  0  0  0  0  0
    7.6313    0.7160   -1.3744 C   0  0  0  0  0  0  0  0  0  0  0  0
    3.9935   -1.8443   -0.2059 C   0  0  0  0  0  0  0  0  0  0  0  0
    2.9375   -1.2887    0.7363 C   0  0  0  0  0  0  0  0  0  0  0  0
   -4.1751    0.9506   -0.2171 C   0  0  2  0  0  0  0  0  0  0  0  0
   -4.9184   -1.1117    0.2972 C   0  0  0  0  0  0  0  0  0  0  0  0
   -5.0676    0.5859   -1.1987 C   0  0  0  0  0  0  0  0  0  0  0  0
   -5.5461   -0.7173   -0.8864 C   0  0  0  0  0  0  0  0  0  0  0  0
   -3.2579   -0.0930    1.8660 C   0  0  0  0  0  0  0  0  0  0  0  0
   -1.9044   -0.6539    1.5881 C   0  0  0  0  0  0  0  0  0  0  0  0
   -3.4173    2.1762   -0.0774 C   0  0  0  0  0  0  0  0  0  0  0  0
   -5.1560   -2.3514    0.9013 C   0  0  0  0  0  0  0  0  0  0  0  0
   -6.4559   -1.6020   -1.4989 C   0  0  0  0  0  0  0  0  0  0  0  0
   -5.4634    1.3970   -2.3706 C   0  0  0  0  0  0  0  0  0  0  0  0
    0.6193   -1.7000    1.0716 C   0  0  0  0  0  0  0  0  0  0  0  0
   -1.7738   -1.8192    0.8326 C   0  0  0  0  0  0  0  0  0  0  0  0
   -0.7690   -0.0135    2.0846 C   0  0  0  0  0  0  0  0  0  0  0  0
   -6.7034   -2.8454   -0.9059 C   0  0  0  0  0  0  0  0  0  0  0  0
   -6.0624   -3.2123    0.2757 C   0  0  0  0  0  0  0  0  0  0  0  0
   -0.5076   -2.3440    0.5737 C   0  0  0  0  0  0  0  0  0  0  0  0
    0.4971   -0.5384    1.8254 C   0  0  0  0  0  0  0  0  0  0  0  0
   -3.9572    3.2470    0.6297 C   0  0  0  0  0  0  0  0  0  0  0  0
   -2.1529    2.2773   -0.6513 C   0  0  0  0  0  0  0  0  0  0  0  0
   -3.2271    4.4279    0.7640 C   0  0  0  0  0  0  0  0  0  0  0  0
   -1.4226    3.4583   -0.5169 C   0  0  0  0  0  0  0  0  0  0  0  0
   -1.9598    4.5335    0.1907 C   0  0  0  0  0  0  0  0  0  0  0  0
    5.8913   -1.6815    1.4894 H   0  0  0  0  0  0  0  0  0  0  0  0
    5.0926   -0.1113    1.5987 H   0  0  0  0  0  0  0  0  0  0  0  0
    5.4920   -1.9055   -2.1559 H   0  0  0  0  0  0  0  0  0  0  0  0
    6.8322   -1.9762   -1.0318 H   0  0  0  0  0  0  0  0  0  0  0  0
    7.9132   -0.7101    0.8160 H   0  0  0  0  0  0  0  0  0  0  0  0
    7.2587    0.3858    2.0149 H   0  0  0  0  0  0  0  0  0  0  0  0
    7.0409   -0.4368   -3.0720 H   0  0  0  0  0  0  0  0  0  0  0  0
    5.7574    0.5609   -2.4214 H   0  0  0  0  0  0  0  0  0  0  0  0
    7.9909    1.8537    0.3917 H   0  0  0  0  0  0  0  0  0  0  0  0
    6.2831    1.7507   -0.0164 H   0  0  0  0  0  0  0  0  0  0  0  0
    7.8739    1.6023   -1.9737 H   0  0  0  0  0  0  0  0  0  0  0  0
    8.5588    0.1337   -1.3050 H   0  0  0  0  0  0  0  0  0  0  0  0
    3.5137   -1.9999   -1.1814 H   0  0  0  0  0  0  0  0  0  0  0  0
    4.3230   -2.8368    0.1292 H   0  0  0  0  0  0  0  0  0  0  0  0
    3.3202   -1.1671    1.7539 H   0  0  0  0  0  0  0  0  0  0  0  0
    2.6074   -0.3166    0.3456 H   0  0  0  0  0  0  0  0  0  0  0  0
   -3.2094    0.9293    2.2558 H   0  0  0  0  0  0  0  0  0  0  0  0
   -3.7638   -0.6859    2.6363 H   0  0  0  0  0  0  0  0  0  0  0  0
   -4.6709   -2.6493    1.8245 H   0  0  0  0  0  0  0  0  0  0  0  0
   -6.9635   -1.3276   -2.4196 H   0  0  0  0  0  0  0  0  0  0  0  0
   -5.9615    0.7939   -3.1359 H   0  0  0  0  0  0  0  0  0  0  0  0
   -6.1521    2.1922   -2.0671 H   0  0  0  0  0  0  0  0  0  0  0  0
   -4.5902    1.8603   -2.8418 H   0  0  0  0  0  0  0  0  0  0  0  0
   -2.6130   -2.3651    0.4275 H   0  0  0  0  0  0  0  0  0  0  0  0
   -0.8572    0.8917    2.6796 H   0  0  0  0  0  0  0  0  0  0  0  0
   -6.2616   -4.1798    0.7310 H   0  0  0  0  0  0  0  0  0  0  0  0
   -0.4093   -3.2523   -0.0139 H   0  0  0  0  0  0  0  0  0  0  0  0
    1.3520   -0.0245    2.2538 H   0  0  0  0  0  0  0  0  0  0  0  0
   -4.9435    3.1796    1.0823 H   0  0  0  0  0  0  0  0  0  0  0  0
   -1.7208    1.4480   -1.2059 H   0  0  0  0  0  0  0  0  0  0  0  0
   -3.6567    5.2583    1.3179 H   0  0  0  0  0  0  0  0  0  0  0  0
   -0.4358    3.5341   -0.9652 H   0  0  0  0  0  0  0  0  0  0  0  0
   -7.6379   -4.5153   -0.9557 H   0  0  0  0  0  0  0  0  0  0  0  0
   -1.7698    6.3219    0.8402 H   0  0  0  0  0  0  0  0  0  0  0  0
  1 13  1  0  0  0  0
  1 24  1  0  0  0  0
  2 27  1  0  0  0  0
  2 68  1  0  0  0  0
  3 35  1  0  0  0  0
  3 69  1  0  0  0  0
  4  6  1  0  0  0  0
  4  7  1  0  0  0  0
  4 12  1  0  0  0  0
  5 14  1  0  0  0  0
  5 15  2  0  0  0  0
  5 18  1  0  0  0  0
  6  8  1  0  0  0  0
  6 36  1  0  0  0  0
  6 37  1  0  0  0  0
  7  9  1  0  0  0  0
  7 38  1  0  0  0  0
  7 39  1  0  0  0  0
  8 10  1  0  0  0  0
  8 40  1  0  0  0  0
  8 41  1  0  0  0  0
  9 11  1  0  0  0  0
  9 42  1  0  0  0  0
  9 43  1  0  0  0  0
 10 11  1  0  0  0  0
 10 44  1  0  0  0  0
 10 45  1  0  0  0  0
 11 46  1  0  0  0  0
 11 47  1  0  0  0  0
 12 13  1  0  0  0  0
 12 48  1  0  0  0  0
 12 49  1  0  0  0  0
 13 50  1  0  0  0  0
 13 51  1  0  0  0  0
 14 16  1  0  0  0  0
 14 20  1  6  0  0  0
 15 17  1  0  0  0  0
 15 21  1  0  0  0  0
 16 17  2  0  0  0  0
 16 23  1  0  0  0  0
 17 22  1  0  0  0  0
 18 19  1  0  0  0  0
 18 52  1  0  0  0  0
 18 53  1  0  0  0  0
 19 25  2  0  0  0  0
 19 26  1  0  0  0  0
 20 31  2  0  0  0  0
 20 32  1  0  0  0  0
 21 28  2  0  0  0  0
 21 54  1  0  0  0  0
 22 27  2  0  0  0  0
 22 55  1  0  0  0  0
 23 56  1  0  0  0  0
 23 57  1  0  0  0  0
 23 58  1  0  0  0  0
 24 29  2  0  0  0  0
 24 30  1  0  0  0  0
 25 29  1  0  0  0  0
 25 59  1  0  0  0  0
 26 30  2  0  0  0  0
 26 60  1  0  0  0  0
 27 28  1  0  0  0  0
 28 61  1  0  0  0  0
 29 62  1  0  0  0  0
 30 63  1  0  0  0  0
 31 33  1  0  0  0  0
 31 64  1  0  0  0  0
 32 34  2  0  0  0  0
 32 65  1  0  0  0  0
 33 35  2  0  0  0  0
 33 66  1  0  0  0  0
 34 35  1  0  0  0  0
 34 67  1  0  0  0  0
M  END
