DB06151
 OpenBabel07062211533D

 19 18  0  0  1  0  0  0  0  0999 V2000
   -1.7799   -1.2061    1.8295 S   0  0  0  0  0  0  0  0  0  0  0  0
   -1.2088    2.0708    0.0671 O   0  0  0  0  0  0  0  0  0  0  0  0
   -2.8007    0.9384   -1.0835 O   0  0  0  0  0  0  0  0  0  0  0  0
    1.9042   -1.1308   -1.3910 O   0  0  0  0  0  0  0  0  0  0  0  0
    0.5577    0.1675   -0.0045 N   0  0  0  0  0  0  0  0  0  0  0  0
   -0.7179   -0.1926   -0.5713 C   0  0  1  0  0  0  0  0  0  0  0  0
   -1.3033   -1.4454    0.0855 C   0  0  0  0  0  0  0  0  0  0  0  0
   -1.6923    0.9735   -0.5629 C   0  0  0  0  0  0  0  0  0  0  0  0
    1.7643   -0.3352   -0.4658 C   0  0  0  0  0  0  0  0  0  0  0  0
    2.9427    0.2241    0.2855 C   0  0  0  0  0  0  0  0  0  0  0  0
   -0.5378   -0.4160   -1.6310 H   0  0  0  0  0  0  0  0  0  0  0  0
   -0.5823   -2.2689    0.0471 H   0  0  0  0  0  0  0  0  0  0  0  0
   -2.2014   -1.7662   -0.4531 H   0  0  0  0  0  0  0  0  0  0  0  0
    0.5633    0.8136    0.7798 H   0  0  0  0  0  0  0  0  0  0  0  0
    3.8467   -0.3307    0.0196 H   0  0  0  0  0  0  0  0  0  0  0  0
    3.0763    1.2771    0.0232 H   0  0  0  0  0  0  0  0  0  0  0  0
    2.7810    0.1343    1.3636 H   0  0  0  0  0  0  0  0  0  0  0  0
   -2.7618   -0.3203    1.6070 H   0  0  0  0  0  0  0  0  0  0  0  0
   -1.8501    2.8130    0.0554 H   0  0  0  0  0  0  0  0  0  0  0  0
  1  7  1  0  0  0  0
  1 18  1  0  0  0  0
  2  8  1  0  0  0  0
  2 19  1  0  0  0  0
  3  8  2  0  0  0  0
  4  9  2  0  0  0  0
  5  6  1  0  0  0  0
  5  9  1  0  0  0  0
  5 14  1  0  0  0  0
  6  7  1  0  0  0  0
  6  8  1  0  0  0  0
  6 11  1  6  0  0  0
  7 12  1  0  0  0  0
  7 13  1  0  0  0  0
  9 10  1  0  0  0  0
 10 15  1  0  0  0  0
 10 16  1  0  0  0  0
 10 17  1  0  0  0  0
M  END
