DB06237
 OpenBabel07062211533D

 60 63  0  0  1  0  0  0  0  0999 V2000
   -5.2067   -1.4706   -2.8594 Cl  0  0  0  0  0  0  0  0  0  0  0  0
    6.1725    1.9921   -0.3772 O   0  0  0  0  0  0  0  0  0  0  0  0
    0.0111    3.8879   -0.3177 O   0  0  0  0  0  0  0  0  0  0  0  0
   -5.8857   -2.6110   -0.1616 O   0  0  0  0  0  0  0  0  0  0  0  0
    4.4043   -0.5188    0.0820 N   0  0  0  0  0  0  0  0  0  0  0  0
    2.1158   -0.2185   -0.1604 N   0  0  0  0  0  0  0  0  0  0  0  0
    3.5485    1.5896    0.5369 N   0  0  0  0  0  0  0  0  0  0  0  0
   -0.2171    0.1275   -0.3977 N   0  0  0  0  0  0  0  0  0  0  0  0
   -0.9703    2.5262    1.2821 N   0  0  0  0  0  0  0  0  0  0  0  0
   -4.0743    1.8945    1.0151 N   0  0  0  0  0  0  0  0  0  0  0  0
   -3.3085    3.4404   -0.6674 N   0  0  0  0  0  0  0  0  0  0  0  0
    5.7600   -0.1807    0.5343 C   0  0  1  0  0  0  0  0  0  0  0  0
    6.4057   -1.5564    0.7554 C   0  0  0  0  0  0  0  0  0  0  0  0
    5.7432   -2.4336   -0.2938 C   0  0  0  0  0  0  0  0  0  0  0  0
    4.3044   -1.9251   -0.3163 C   0  0  0  0  0  0  0  0  0  0  0  0
    6.5028    0.6235   -0.5316 C   0  0  0  0  0  0  0  0  0  0  0  0
    3.3088    0.3202    0.1562 C   0  0  0  0  0  0  0  0  0  0  0  0
    1.0689    0.6288   -0.0777 C   0  0  0  0  0  0  0  0  0  0  0  0
    1.1806    1.9514    0.2994 C   0  0  0  0  0  0  0  0  0  0  0  0
    2.4575    2.3811    0.5981 C   0  0  0  0  0  0  0  0  0  0  0  0
   -0.4393   -1.2237   -0.7984 C   0  0  0  0  0  0  0  0  0  0  0  0
    0.0535    2.8658    0.3900 C   0  0  0  0  0  0  0  0  0  0  0  0
   -1.8888   -1.5898   -0.6370 C   0  0  0  0  0  0  0  0  0  0  0  0
   -2.7808   -1.3891   -1.6904 C   0  0  0  0  0  0  0  0  0  0  0  0
   -2.3411   -2.1302    0.5668 C   0  0  0  0  0  0  0  0  0  0  0  0
   -2.1642    3.3192    1.4677 C   0  0  0  0  0  0  0  0  0  0  0  0
   -4.1253   -1.7291   -1.5402 C   0  0  0  0  0  0  0  0  0  0  0  0
   -3.6857   -2.4699    0.7170 C   0  0  0  0  0  0  0  0  0  0  0  0
   -4.5778   -2.2695   -0.3365 C   0  0  0  0  0  0  0  0  0  0  0  0
   -3.2552    2.8538    0.5436 C   0  0  0  0  0  0  0  0  0  0  0  0
   -6.2485   -3.1557    1.1053 C   0  0  0  0  0  0  0  0  0  0  0  0
   -5.0409    1.5007    0.1602 C   0  0  0  0  0  0  0  0  0  0  0  0
   -4.2988    2.9991   -1.4706 C   0  0  0  0  0  0  0  0  0  0  0  0
   -5.2031    2.0223   -1.1070 C   0  0  0  0  0  0  0  0  0  0  0  0
    5.7356    0.3646    1.4861 H   0  0  0  0  0  0  0  0  0  0  0  0
    7.4965   -1.5494    0.6746 H   0  0  0  0  0  0  0  0  0  0  0  0
    6.1452   -1.9280    1.7545 H   0  0  0  0  0  0  0  0  0  0  0  0
    5.8051   -3.4996   -0.0580 H   0  0  0  0  0  0  0  0  0  0  0  0
    6.2145   -2.2737   -1.2709 H   0  0  0  0  0  0  0  0  0  0  0  0
    3.8644   -2.0410   -1.3125 H   0  0  0  0  0  0  0  0  0  0  0  0
    3.6970   -2.4774    0.4104 H   0  0  0  0  0  0  0  0  0  0  0  0
    7.5861    0.5351   -0.4012 H   0  0  0  0  0  0  0  0  0  0  0  0
    6.2419    0.3098   -1.5479 H   0  0  0  0  0  0  0  0  0  0  0  0
    6.6596    2.4840   -1.0600 H   0  0  0  0  0  0  0  0  0  0  0  0
    2.6559    3.4028    0.9069 H   0  0  0  0  0  0  0  0  0  0  0  0
   -0.9090    0.8175   -0.6728 H   0  0  0  0  0  0  0  0  0  0  0  0
    0.1602   -1.9230   -0.2007 H   0  0  0  0  0  0  0  0  0  0  0  0
   -0.1277   -1.3682   -1.8403 H   0  0  0  0  0  0  0  0  0  0  0  0
   -0.8861    1.6683    1.8203 H   0  0  0  0  0  0  0  0  0  0  0  0
   -2.4252   -0.9648   -2.6266 H   0  0  0  0  0  0  0  0  0  0  0  0
   -1.6557   -2.2884    1.3952 H   0  0  0  0  0  0  0  0  0  0  0  0
   -2.4770    3.2099    2.5112 H   0  0  0  0  0  0  0  0  0  0  0  0
   -1.9392    4.3757    1.2869 H   0  0  0  0  0  0  0  0  0  0  0  0
   -3.9606   -2.8828    1.6812 H   0  0  0  0  0  0  0  0  0  0  0  0
   -6.0996   -2.4324    1.9144 H   0  0  0  0  0  0  0  0  0  0  0  0
   -7.3220   -3.3691    1.0671 H   0  0  0  0  0  0  0  0  0  0  0  0
   -5.7441   -4.1091    1.2961 H   0  0  0  0  0  0  0  0  0  0  0  0
   -5.7055    0.7299    0.5355 H   0  0  0  0  0  0  0  0  0  0  0  0
   -4.3469    3.4679   -2.4476 H   0  0  0  0  0  0  0  0  0  0  0  0
   -5.9888    1.6887   -1.7712 H   0  0  0  0  0  0  0  0  0  0  0  0
  1 27  1  0  0  0  0
  2 16  1  0  0  0  0
  2 44  1  0  0  0  0
  3 22  2  0  0  0  0
  4 29  1  0  0  0  0
  4 31  1  0  0  0  0
  5 12  1  0  0  0  0
  5 15  1  0  0  0  0
  5 17  1  0  0  0  0
  6 17  2  0  0  0  0
  6 18  1  0  0  0  0
  7 17  1  0  0  0  0
  7 20  2  0  0  0  0
  8 18  1  0  0  0  0
  8 21  1  0  0  0  0
  8 46  1  0  0  0  0
  9 22  1  0  0  0  0
  9 26  1  0  0  0  0
  9 49  1  0  0  0  0
 10 30  2  0  0  0  0
 10 32  1  0  0  0  0
 11 30  1  0  0  0  0
 11 33  2  0  0  0  0
 12 13  1  0  0  0  0
 12 16  1  0  0  0  0
 12 35  1  1  0  0  0
 13 14  1  0  0  0  0
 13 36  1  0  0  0  0
 13 37  1  0  0  0  0
 14 15  1  0  0  0  0
 14 38  1  0  0  0  0
 14 39  1  0  0  0  0
 15 40  1  0  0  0  0
 15 41  1  0  0  0  0
 16 42  1  0  0  0  0
 16 43  1  0  0  0  0
 18 19  2  0  0  0  0
 19 20  1  0  0  0  0
 19 22  1  0  0  0  0
 20 45  1  0  0  0  0
 21 23  1  0  0  0  0
 21 47  1  0  0  0  0
 21 48  1  0  0  0  0
 23 24  2  0  0  0  0
 23 25  1  0  0  0  0
 24 27  1  0  0  0  0
 24 50  1  0  0  0  0
 25 28  2  0  0  0  0
 25 51  1  0  0  0  0
 26 30  1  0  0  0  0
 26 52  1  0  0  0  0
 26 53  1  0  0  0  0
 27 29  2  0  0  0  0
 28 29  1  0  0  0  0
 28 54  1  0  0  0  0
 31 55  1  0  0  0  0
 31 56  1  0  0  0  0
 31 57  1  0  0  0  0
 32 34  2  0  0  0  0
 32 58  1  0  0  0  0
 33 34  1  0  0  0  0
 33 59  1  0  0  0  0
 34 60  1  0  0  0  0
M  END
