DB06795
 OpenBabel07062211533D

 22 22  0  0  0  0  0  0  0  0999 V2000
   -2.9499    0.0004   -0.6991 S   0  0  0  0  0  0  0  0  0  0  0  0
   -3.2729    1.2606   -1.3535 O   0  0  0  0  0  0  0  0  0  0  0  0
   -3.2769   -1.2589   -1.3533 O   0  0  0  0  0  0  0  0  0  0  0  0
   -3.6369   -0.0000    0.8654 N   0  0  0  0  0  0  0  0  0  0  0  0
    3.7703    0.0006   -0.5733 N   0  0  0  0  0  0  0  0  0  0  0  0
   -1.2469   -0.0001   -0.3147 C   0  0  0  0  0  0  0  0  0  0  0  0
    1.4746   -0.0004    0.2986 C   0  0  0  0  0  0  0  0  0  0  0  0
   -0.5665   -1.2081   -0.1617 C   0  0  0  0  0  0  0  0  0  0  0  0
   -0.5665    1.2077   -0.1612 C   0  0  0  0  0  0  0  0  0  0  0  0
    0.7942   -1.2084    0.1451 C   0  0  0  0  0  0  0  0  0  0  0  0
    0.7942    1.2076    0.1455 C   0  0  0  0  0  0  0  0  0  0  0  0
    2.9297   -0.0004    0.6253 C   0  0  0  0  0  0  0  0  0  0  0  0
   -1.0778   -2.1604   -0.2710 H   0  0  0  0  0  0  0  0  0  0  0  0
   -1.0776    2.1603   -0.2699 H   0  0  0  0  0  0  0  0  0  0  0  0
    1.3129   -2.1563    0.2617 H   0  0  0  0  0  0  0  0  0  0  0  0
    1.3131    2.1555    0.2625 H   0  0  0  0  0  0  0  0  0  0  0  0
    3.1816    0.8730    1.2385 H   0  0  0  0  0  0  0  0  0  0  0  0
    3.1819   -0.8744    1.2374 H   0  0  0  0  0  0  0  0  0  0  0  0
   -4.0982    0.8609    1.1837 H   0  0  0  0  0  0  0  0  0  0  0  0
   -4.0987   -0.8609    1.1831 H   0  0  0  0  0  0  0  0  0  0  0  0
    3.5580    0.8179   -1.1440 H   0  0  0  0  0  0  0  0  0  0  0  0
    3.5583   -0.8162   -1.1451 H   0  0  0  0  0  0  0  0  0  0  0  0
  1  2  2  0  0  0  0
  1  3  2  0  0  0  0
  1  4  1  0  0  0  0
  1  6  1  0  0  0  0
  4 19  1  0  0  0  0
  4 20  1  0  0  0  0
  5 12  1  0  0  0  0
  5 21  1  0  0  0  0
  5 22  1  0  0  0  0
  6  8  2  0  0  0  0
  6  9  1  0  0  0  0
  7 10  2  0  0  0  0
  7 11  1  0  0  0  0
  7 12  1  0  0  0  0
  8 10  1  0  0  0  0
  8 13  1  0  0  0  0
  9 11  2  0  0  0  0
  9 14  1  0  0  0  0
 10 15  1  0  0  0  0
 11 16  1  0  0  0  0
 12 17  1  0  0  0  0
 12 18  1  0  0  0  0
M  END
