DB06762
 OpenBabel07062211533D

 37 37  0  0  1  0  0  0  0  0999 V2000
   -0.0813    0.3334    0.3024 N   0  0  0  0  0  0  0  0  0  0  0  0
    2.1181    1.2135   -0.0614 N   0  0  0  0  0  0  0  0  0  0  0  0
    0.1801    2.5547   -0.4049 N   0  0  0  0  0  0  0  0  0  0  0  0
    4.6428   -2.1410    0.1684 N   0  0  0  0  0  0  0  0  0  0  0  0
    1.6060    4.0353   -1.8331 N   0  0  0  0  0  0  0  0  0  0  0  0
   -2.3078   -0.6480   -0.1913 C   0  0  0  0  0  0  0  0  0  0  0  0
   -1.5208    0.6350    0.2163 C   0  0  1  0  0  0  0  0  0  0  0  0
   -1.8064   -1.2495   -1.5177 C   0  0  0  0  0  0  0  0  0  0  0  0
   -2.1640   -1.7157    0.9149 C   0  0  0  0  0  0  0  0  0  0  0  0
   -3.8087   -0.3265   -0.3401 C   0  0  0  0  0  0  0  0  0  0  0  0
   -1.9428    1.2809    1.5354 C   0  0  0  0  0  0  0  0  0  0  0  0
    0.7345    1.2834   -0.0049 C   0  0  0  0  0  0  0  0  0  0  0  0
    2.9667    0.0865    0.0156 C   0  0  0  0  0  0  0  0  0  0  0  0
    4.3009    0.2438    0.3680 C   0  0  0  0  0  0  0  0  0  0  0  0
    2.4666   -1.1792   -0.2608 C   0  0  0  0  0  0  0  0  0  0  0  0
    0.9492    3.3455   -1.1704 C   0  0  0  0  0  0  0  0  0  0  0  0
    5.0911   -0.8927    0.4298 C   0  0  0  0  0  0  0  0  0  0  0  0
    3.3389   -2.2521   -0.1711 C   0  0  0  0  0  0  0  0  0  0  0  0
   -1.7537    1.3208   -0.6067 H   0  0  0  0  0  0  0  0  0  0  0  0
   -2.4058   -2.1182   -1.8131 H   0  0  0  0  0  0  0  0  0  0  0  0
   -1.8665   -0.5134   -2.3269 H   0  0  0  0  0  0  0  0  0  0  0  0
   -0.7668   -1.5825   -1.4443 H   0  0  0  0  0  0  0  0  0  0  0  0
   -2.6716   -2.6437    0.6249 H   0  0  0  0  0  0  0  0  0  0  0  0
   -1.1147   -1.9677    1.1022 H   0  0  0  0  0  0  0  0  0  0  0  0
   -2.6117   -1.3948    1.8608 H   0  0  0  0  0  0  0  0  0  0  0  0
   -3.9696    0.4758   -1.0687 H   0  0  0  0  0  0  0  0  0  0  0  0
   -4.2622   -0.0197    0.6078 H   0  0  0  0  0  0  0  0  0  0  0  0
   -4.3658   -1.2041   -0.6889 H   0  0  0  0  0  0  0  0  0  0  0  0
   -2.9986    1.5652    1.5258 H   0  0  0  0  0  0  0  0  0  0  0  0
   -1.7756    0.6113    2.3852 H   0  0  0  0  0  0  0  0  0  0  0  0
   -1.3728    2.1900    1.7520 H   0  0  0  0  0  0  0  0  0  0  0  0
    2.6334    2.0895   -0.0419 H   0  0  0  0  0  0  0  0  0  0  0  0
   -0.7736    2.8195   -0.1989 H   0  0  0  0  0  0  0  0  0  0  0  0
    4.7228    1.2180    0.5908 H   0  0  0  0  0  0  0  0  0  0  0  0
    1.4478   -1.3659   -0.5713 H   0  0  0  0  0  0  0  0  0  0  0  0
    6.1397   -0.8260    0.7004 H   0  0  0  0  0  0  0  0  0  0  0  0
    3.0021   -3.2613   -0.3843 H   0  0  0  0  0  0  0  0  0  0  0  0
  1  7  1  0  0  0  0
  1 12  2  0  0  0  0
  2 12  1  0  0  0  0
  2 13  1  0  0  0  0
  2 32  1  0  0  0  0
  3 12  1  0  0  0  0
  3 16  1  0  0  0  0
  3 33  1  0  0  0  0
  4 17  2  0  0  0  0
  4 18  1  0  0  0  0
  5 16  3  0  0  0  0
  6  7  1  0  0  0  0
  6  8  1  0  0  0  0
  6  9  1  0  0  0  0
  6 10  1  0  0  0  0
  7 11  1  0  0  0  0
  7 19  1  6  0  0  0
  8 20  1  0  0  0  0
  8 21  1  0  0  0  0
  8 22  1  0  0  0  0
  9 23  1  0  0  0  0
  9 24  1  0  0  0  0
  9 25  1  0  0  0  0
 10 26  1  0  0  0  0
 10 27  1  0  0  0  0
 10 28  1  0  0  0  0
 11 29  1  0  0  0  0
 11 30  1  0  0  0  0
 11 31  1  0  0  0  0
 13 14  2  0  0  0  0
 13 15  1  0  0  0  0
 14 17  1  0  0  0  0
 14 34  1  0  0  0  0
 15 18  2  0  0  0  0
 15 35  1  0  0  0  0
 17 36  1  0  0  0  0
 18 37  1  0  0  0  0
M  END
