DB06711
 OpenBabel07062211533D

 30 32  0  0  0  0  0  0  0  0999 V2000
   -2.8861   -0.6767   -0.0467 N   0  0  0  0  0  0  0  0  0  0  0  0
   -2.0438    1.4362   -0.1167 N   0  0  0  0  0  0  0  0  0  0  0  0
   -0.9042   -0.2472   -1.4869 C   0  0  0  0  0  0  0  0  0  0  0  0
    0.2969   -0.7679   -0.7599 C   0  0  0  0  0  0  0  0  0  0  0  0
   -1.9654    0.1990   -0.5367 C   0  0  0  0  0  0  0  0  0  0  0  0
    1.3634    0.0674   -0.3894 C   0  0  0  0  0  0  0  0  0  0  0  0
   -3.7605   -0.0090    0.8692 C   0  0  0  0  0  0  0  0  0  0  0  0
   -3.2263    1.4295    0.7991 C   0  0  0  0  0  0  0  0  0  0  0  0
    2.4711   -0.4867    0.2956 C   0  0  0  0  0  0  0  0  0  0  0  0
    0.3221   -2.1300   -0.4592 C   0  0  0  0  0  0  0  0  0  0  0  0
    1.3549    1.4405   -0.6837 C   0  0  0  0  0  0  0  0  0  0  0  0
    2.4795   -1.8599    0.5897 C   0  0  0  0  0  0  0  0  0  0  0  0
    1.4113   -2.6750    0.2143 C   0  0  0  0  0  0  0  0  0  0  0  0
    3.5377    0.3486    0.6659 C   0  0  0  0  0  0  0  0  0  0  0  0
    2.4231    2.2556   -0.3082 C   0  0  0  0  0  0  0  0  0  0  0  0
    3.5124    1.7108    0.3654 C   0  0  0  0  0  0  0  0  0  0  0  0
   -0.6627    0.5538   -2.1917 H   0  0  0  0  0  0  0  0  0  0  0  0
   -1.3255   -1.0417   -2.1179 H   0  0  0  0  0  0  0  0  0  0  0  0
   -3.6681   -0.4206    1.8786 H   0  0  0  0  0  0  0  0  0  0  0  0
   -4.8042   -0.0673    0.5475 H   0  0  0  0  0  0  0  0  0  0  0  0
   -3.9892    2.1118    0.4094 H   0  0  0  0  0  0  0  0  0  0  0  0
   -2.9237    1.7837    1.7900 H   0  0  0  0  0  0  0  0  0  0  0  0
   -2.9435   -1.6651   -0.2594 H   0  0  0  0  0  0  0  0  0  0  0  0
   -0.5012   -2.7810   -0.7423 H   0  0  0  0  0  0  0  0  0  0  0  0
    0.5345    1.9272   -1.2006 H   0  0  0  0  0  0  0  0  0  0  0  0
    3.3203   -2.3075    1.1155 H   0  0  0  0  0  0  0  0  0  0  0  0
    1.4303   -3.7353    0.4484 H   0  0  0  0  0  0  0  0  0  0  0  0
    4.3992   -0.0558    1.1930 H   0  0  0  0  0  0  0  0  0  0  0  0
    2.4042    3.3166   -0.5401 H   0  0  0  0  0  0  0  0  0  0  0  0
    4.3434    2.3461    0.6578 H   0  0  0  0  0  0  0  0  0  0  0  0
  1  5  1  0  0  0  0
  1  7  1  0  0  0  0
  1 23  1  0  0  0  0
  2  5  2  0  0  0  0
  2  8  1  0  0  0  0
  3  4  1  0  0  0  0
  3  5  1  0  0  0  0
  3 17  1  0  0  0  0
  3 18  1  0  0  0  0
  4  6  2  0  0  0  0
  4 10  1  0  0  0  0
  6  9  1  0  0  0  0
  6 11  1  0  0  0  0
  7  8  1  0  0  0  0
  7 19  1  0  0  0  0
  7 20  1  0  0  0  0
  8 21  1  0  0  0  0
  8 22  1  0  0  0  0
  9 12  2  0  0  0  0
  9 14  1  0  0  0  0
 10 13  2  0  0  0  0
 10 24  1  0  0  0  0
 11 15  2  0  0  0  0
 11 25  1  0  0  0  0
 12 13  1  0  0  0  0
 12 26  1  0  0  0  0
 13 27  1  0  0  0  0
 14 16  2  0  0  0  0
 14 28  1  0  0  0  0
 15 16  1  0  0  0  0
 15 29  1  0  0  0  0
 16 30  1  0  0  0  0
M  END
