DB06702
 OpenBabel07062211533D

 67 68  0  0  1  0  0  0  0  0999 V2000
    0.7808    2.4794   -0.7744 O   0  0  0  0  0  0  0  0  0  0  0  0
    3.1091   -0.0876    4.4800 O   0  0  0  0  0  0  0  0  0  0  0  0
   -0.7483    3.1571    0.8595 O   0  0  0  0  0  0  0  0  0  0  0  0
   -1.8795   -1.8460    0.6312 N   0  0  0  0  0  0  0  0  0  0  0  0
   -0.9801   -0.8036    0.1481 C   0  0  0  0  0  0  0  0  0  0  0  0
    0.3546   -1.4175   -0.2897 C   0  0  0  0  0  0  0  0  0  0  0  0
    1.3603   -0.3347   -0.8014 C   0  0  1  0  0  0  0  0  0  0  0  0
   -2.5137   -2.5393   -0.4910 C   0  0  0  0  0  0  0  0  0  0  0  0
   -2.8960   -1.2780    1.5181 C   0  0  0  0  0  0  0  0  0  0  0  0
    1.8630    0.5751    0.2706 C   0  0  0  0  0  0  0  0  0  0  0  0
    2.5008   -0.9449   -1.6316 C   0  0  0  0  0  0  0  0  0  0  0  0
   -3.6808   -1.7166   -1.0296 C   0  0  0  0  0  0  0  0  0  0  0  0
   -2.9792   -3.9193   -0.0376 C   0  0  0  0  0  0  0  0  0  0  0  0
   -2.3185   -1.1278    2.9219 C   0  0  0  0  0  0  0  0  0  0  0  0
   -3.3791    0.0647    0.9773 C   0  0  0  0  0  0  0  0  0  0  0  0
    1.5602    1.9366    0.2495 C   0  0  0  0  0  0  0  0  0  0  0  0
    2.6428    0.0500    1.3012 C   0  0  0  0  0  0  0  0  0  0  0  0
    2.9384   -2.2430   -1.3679 C   0  0  0  0  0  0  0  0  0  0  0  0
    3.0989   -0.2006   -2.6484 C   0  0  0  0  0  0  0  0  0  0  0  0
    3.1197    0.8864    2.3103 C   0  0  0  0  0  0  0  0  0  0  0  0
    2.0374    2.7731    1.2587 C   0  0  0  0  0  0  0  0  0  0  0  0
    2.8171    2.2478    2.2891 C   0  0  0  0  0  0  0  0  0  0  0  0
    3.9738   -2.7965   -2.1212 C   0  0  0  0  0  0  0  0  0  0  0  0
    4.1341   -0.7541   -3.4017 C   0  0  0  0  0  0  0  0  0  0  0  0
    3.9533    0.3253    3.4124 C   0  0  0  0  0  0  0  0  0  0  0  0
    4.5716   -2.0520   -3.1381 C   0  0  0  0  0  0  0  0  0  0  0  0
   -0.3893    3.0761   -0.3082 C   0  0  0  0  0  0  0  0  0  0  0  0
   -1.1574    3.6305   -1.4966 C   0  0  0  0  0  0  0  0  0  0  0  0
   -1.9442    4.8639   -1.0695 C   0  0  0  0  0  0  0  0  0  0  0  0
   -2.0824    2.5681   -2.0846 C   0  0  0  0  0  0  0  0  0  0  0  0
   -1.3788   -0.2282   -0.6940 H   0  0  0  0  0  0  0  0  0  0  0  0
   -0.7441   -0.0861    0.9413 H   0  0  0  0  0  0  0  0  0  0  0  0
    0.1824   -2.1368   -1.0986 H   0  0  0  0  0  0  0  0  0  0  0  0
    0.7798   -1.9800    0.5519 H   0  0  0  0  0  0  0  0  0  0  0  0
    0.7818    0.2428   -1.5362 H   0  0  0  0  0  0  0  0  0  0  0  0
   -1.8090   -2.7157   -1.3107 H   0  0  0  0  0  0  0  0  0  0  0  0
   -3.7512   -1.9528    1.6396 H   0  0  0  0  0  0  0  0  0  0  0  0
   -4.1241   -2.3081   -1.8464 H   0  0  0  0  0  0  0  0  0  0  0  0
   -3.3715   -0.8080   -1.5520 H   0  0  0  0  0  0  0  0  0  0  0  0
   -4.5350   -1.5714   -0.3640 H   0  0  0  0  0  0  0  0  0  0  0  0
   -3.3575   -4.4905   -0.8932 H   0  0  0  0  0  0  0  0  0  0  0  0
   -2.1482   -4.4911    0.3913 H   0  0  0  0  0  0  0  0  0  0  0  0
   -3.7833   -3.8836    0.7036 H   0  0  0  0  0  0  0  0  0  0  0  0
   -1.4736   -0.4332    2.9702 H   0  0  0  0  0  0  0  0  0  0  0  0
   -3.0859   -0.7542    3.6094 H   0  0  0  0  0  0  0  0  0  0  0  0
   -1.9771   -2.0954    3.3077 H   0  0  0  0  0  0  0  0  0  0  0  0
   -2.8780    0.8839    1.5129 H   0  0  0  0  0  0  0  0  0  0  0  0
   -3.2769    0.3440   -0.0638 H   0  0  0  0  0  0  0  0  0  0  0  0
   -4.4431    0.1805    1.2234 H   0  0  0  0  0  0  0  0  0  0  0  0
    2.8805   -1.0101    1.3335 H   0  0  0  0  0  0  0  0  0  0  0  0
    2.5110   -2.8484   -0.5752 H   0  0  0  0  0  0  0  0  0  0  0  0
    2.7678    0.8119   -2.8635 H   0  0  0  0  0  0  0  0  0  0  0  0
    1.8277    3.8394    1.2478 H   0  0  0  0  0  0  0  0  0  0  0  0
    3.1849    2.9101    3.0684 H   0  0  0  0  0  0  0  0  0  0  0  0
    4.3176   -3.8057   -1.9138 H   0  0  0  0  0  0  0  0  0  0  0  0
    4.5999   -0.1744   -4.1933 H   0  0  0  0  0  0  0  0  0  0  0  0
    4.6612    1.0716    3.7895 H   0  0  0  0  0  0  0  0  0  0  0  0
    4.5346   -0.5368    3.0670 H   0  0  0  0  0  0  0  0  0  0  0  0
    5.3784   -2.4825   -3.7238 H   0  0  0  0  0  0  0  0  0  0  0  0
   -0.4315    3.9458   -2.2565 H   0  0  0  0  0  0  0  0  0  0  0  0
   -2.7071    4.6168   -0.3228 H   0  0  0  0  0  0  0  0  0  0  0  0
   -2.4479    5.3199   -1.9283 H   0  0  0  0  0  0  0  0  0  0  0  0
   -1.2812    5.6160   -0.6279 H   0  0  0  0  0  0  0  0  0  0  0  0
   -2.8401    2.2591   -1.3581 H   0  0  0  0  0  0  0  0  0  0  0  0
   -2.5975    2.9488   -2.9724 H   0  0  0  0  0  0  0  0  0  0  0  0
   -1.5173    1.6765   -2.3758 H   0  0  0  0  0  0  0  0  0  0  0  0
    3.6852   -0.4464    5.1764 H   0  0  0  0  0  0  0  0  0  0  0  0
  1 16  1  0  0  0  0
  1 27  1  0  0  0  0
  2 25  1  0  0  0  0
  2 67  1  0  0  0  0
  3 27  2  0  0  0  0
  4  5  1  0  0  0  0
  4  8  1  0  0  0  0
  4  9  1  0  0  0  0
  5  6  1  0  0  0  0
  5 31  1  0  0  0  0
  5 32  1  0  0  0  0
  6  7  1  0  0  0  0
  6 33  1  0  0  0  0
  6 34  1  0  0  0  0
  7 10  1  0  0  0  0
  7 11  1  0  0  0  0
  7 35  1  6  0  0  0
  8 12  1  0  0  0  0
  8 13  1  0  0  0  0
  8 36  1  0  0  0  0
  9 14  1  0  0  0  0
  9 15  1  0  0  0  0
  9 37  1  0  0  0  0
 10 16  2  0  0  0  0
 10 17  1  0  0  0  0
 11 18  2  0  0  0  0
 11 19  1  0  0  0  0
 12 38  1  0  0  0  0
 12 39  1  0  0  0  0
 12 40  1  0  0  0  0
 13 41  1  0  0  0  0
 13 42  1  0  0  0  0
 13 43  1  0  0  0  0
 14 44  1  0  0  0  0
 14 45  1  0  0  0  0
 14 46  1  0  0  0  0
 15 47  1  0  0  0  0
 15 48  1  0  0  0  0
 15 49  1  0  0  0  0
 16 21  1  0  0  0  0
 17 20  2  0  0  0  0
 17 50  1  0  0  0  0
 18 23  1  0  0  0  0
 18 51  1  0  0  0  0
 19 24  2  0  0  0  0
 19 52  1  0  0  0  0
 20 22  1  0  0  0  0
 20 25  1  0  0  0  0
 21 22  2  0  0  0  0
 21 53  1  0  0  0  0
 22 54  1  0  0  0  0
 23 26  2  0  0  0  0
 23 55  1  0  0  0  0
 24 26  1  0  0  0  0
 24 56  1  0  0  0  0
 25 57  1  0  0  0  0
 25 58  1  0  0  0  0
 26 59  1  0  0  0  0
 27 28  1  0  0  0  0
 28 29  1  0  0  0  0
 28 30  1  0  0  0  0
 28 60  1  0  0  0  0
 29 61  1  0  0  0  0
 29 62  1  0  0  0  0
 29 63  1  0  0  0  0
 30 64  1  0  0  0  0
 30 65  1  0  0  0  0
 30 66  1  0  0  0  0
M  END
