DB06820
 OpenBabel07062211533D

 39 41  0  0  1  0  0  0  0  0999 V2000
   -1.2742    0.0393   -2.7391 Cl  0  0  0  0  0  0  0  0  0  0  0  0
   -2.0894    4.9636   -0.7252 Cl  0  0  0  0  0  0  0  0  0  0  0  0
    7.6390   -0.2838    0.5695 Cl  0  0  0  0  0  0  0  0  0  0  0  0
    0.7816   -1.0336    0.8869 S   0  0  0  0  0  0  0  0  0  0  0  0
   -3.2458   -1.5737    0.5259 N   0  0  0  0  0  0  0  0  0  0  0  0
   -4.9827   -2.2881   -0.6203 N   0  0  0  0  0  0  0  0  0  0  0  0
   -0.8731   -0.8458    0.1860 C   0  0  1  0  0  0  0  0  0  0  0  0
   -1.8978   -1.5468    1.0978 C   0  0  0  0  0  0  0  0  0  0  0  0
   -1.1817    0.6157   -0.0767 C   0  0  0  0  0  0  0  0  0  0  0  0
    1.7295   -0.3019   -0.4820 C   0  0  0  0  0  0  0  0  0  0  0  0
   -1.3729    1.0803   -1.3659 C   0  0  0  0  0  0  0  0  0  0  0  0
   -1.2637    1.4595    1.0177 C   0  0  0  0  0  0  0  0  0  0  0  0
    3.1982   -0.2970   -0.2216 C   0  0  0  0  0  0  0  0  0  0  0  0
   -4.1956   -0.6261    0.7049 C   0  0  0  0  0  0  0  0  0  0  0  0
   -3.7437   -2.5512   -0.2681 C   0  0  0  0  0  0  0  0  0  0  0  0
   -1.6550    2.4315   -1.5679 C   0  0  0  0  0  0  0  0  0  0  0  0
   -1.5458    2.8104    0.8157 C   0  0  0  0  0  0  0  0  0  0  0  0
   -1.7413    3.2966   -0.4771 C   0  0  0  0  0  0  0  0  0  0  0  0
   -5.2702   -1.0892   -0.0175 C   0  0  0  0  0  0  0  0  0  0  0  0
    3.9799   -1.3828   -0.6155 C   0  0  0  0  0  0  0  0  0  0  0  0
    3.7896    0.7930    0.4170 C   0  0  0  0  0  0  0  0  0  0  0  0
    5.3532   -1.3788   -0.3711 C   0  0  0  0  0  0  0  0  0  0  0  0
    5.1629    0.7973    0.6615 C   0  0  0  0  0  0  0  0  0  0  0  0
    5.9449   -0.2887    0.2674 C   0  0  0  0  0  0  0  0  0  0  0  0
   -0.8549   -1.4322   -0.7356 H   0  0  0  0  0  0  0  0  0  0  0  0
   -1.9854   -1.0739    2.0838 H   0  0  0  0  0  0  0  0  0  0  0  0
   -1.6201   -2.5955    1.2676 H   0  0  0  0  0  0  0  0  0  0  0  0
    1.5209   -0.8618   -1.4007 H   0  0  0  0  0  0  0  0  0  0  0  0
    1.4122    0.7304   -0.6589 H   0  0  0  0  0  0  0  0  0  0  0  0
   -1.1156    1.1068    2.0340 H   0  0  0  0  0  0  0  0  0  0  0  0
   -4.0540    0.2596    1.3077 H   0  0  0  0  0  0  0  0  0  0  0  0
   -3.1772   -3.4241   -0.5628 H   0  0  0  0  0  0  0  0  0  0  0  0
   -1.8081    2.8122   -2.5755 H   0  0  0  0  0  0  0  0  0  0  0  0
   -1.6101    3.4730    1.6750 H   0  0  0  0  0  0  0  0  0  0  0  0
   -6.2371   -0.6212   -0.1318 H   0  0  0  0  0  0  0  0  0  0  0  0
    3.5315   -2.2390   -1.1128 H   0  0  0  0  0  0  0  0  0  0  0  0
    3.1919    1.6449    0.7304 H   0  0  0  0  0  0  0  0  0  0  0  0
    5.9499   -2.2320   -0.6832 H   0  0  0  0  0  0  0  0  0  0  0  0
    5.6101    1.6533    1.1603 H   0  0  0  0  0  0  0  0  0  0  0  0
  1 11  1  0  0  0  0
  2 18  1  0  0  0  0
  3 24  1  0  0  0  0
  4  7  1  0  0  0  0
  4 10  1  0  0  0  0
  5  8  1  0  0  0  0
  5 14  1  0  0  0  0
  5 15  2  0  0  0  0
  6 15  1  0  0  0  0
  6 19  2  0  0  0  0
  7  8  1  0  0  0  0
  7  9  1  0  0  0  0
  7 25  1  6  0  0  0
  8 26  1  0  0  0  0
  8 27  1  0  0  0  0
  9 11  2  0  0  0  0
  9 12  1  0  0  0  0
 10 13  1  0  0  0  0
 10 28  1  0  0  0  0
 10 29  1  0  0  0  0
 11 16  1  0  0  0  0
 12 17  2  0  0  0  0
 12 30  1  0  0  0  0
 13 20  2  0  0  0  0
 13 21  1  0  0  0  0
 14 19  1  0  0  0  0
 14 31  1  0  0  0  0
 15 32  1  0  0  0  0
 16 18  2  0  0  0  0
 16 33  1  0  0  0  0
 17 18  1  0  0  0  0
 17 34  1  0  0  0  0
 19 35  1  0  0  0  0
 20 22  1  0  0  0  0
 20 36  1  0  0  0  0
 21 23  2  0  0  0  0
 21 37  1  0  0  0  0
 22 24  2  0  0  0  0
 22 38  1  0  0  0  0
 23 24  1  0  0  0  0
 23 39  1  0  0  0  0
M  END
