DB06213
 OpenBabel07062211533D

 46 49  0  0  1  0  0  0  0  0999 V2000
   -3.4165    0.7875    1.1268 O   0  0  0  0  0  0  0  0  0  0  0  0
   -1.9148    2.5082   -1.1267 O   0  0  0  0  0  0  0  0  0  0  0  0
   -4.5395    2.4385   -1.8602 O   0  0  0  0  0  0  0  0  0  0  0  0
   -5.9148    1.5213    2.2201 O   0  0  0  0  0  0  0  0  0  0  0  0
    4.7925    2.4757   -0.5219 O   0  0  0  0  0  0  0  0  0  0  0  0
   -1.9725   -0.8486    0.1924 N   0  0  0  0  0  0  0  0  0  0  0  0
   -2.3309   -3.0490    0.1049 N   0  0  0  0  0  0  0  0  0  0  0  0
    0.4523   -0.8176    0.0447 N   0  0  0  0  0  0  0  0  0  0  0  0
    1.3606   -3.0764   -0.1244 N   0  0  0  0  0  0  0  0  0  0  0  0
    2.7341   -1.2037   -0.1169 N   0  0  0  0  0  0  0  0  0  0  0  0
   -0.0312   -5.0231   -0.1363 N   0  0  0  0  0  0  0  0  0  0  0  0
    3.7993   -2.0186   -0.2239 N   0  0  0  0  0  0  0  0  0  0  0  0
    6.5445    1.2455    0.3342 N   0  0  0  0  0  0  0  0  0  0  0  0
   -2.5577    1.2359   -1.0690 C   0  0  1  0  0  0  0  0  0  0  0  0
   -2.2630    0.5833    0.2828 C   0  0  1  0  0  0  0  0  0  0  0  0
   -4.0675    1.3838   -1.0498 C   0  0  1  0  0  0  0  0  0  0  0  0
   -4.3494    1.6239    0.4233 C   0  0  1  0  0  0  0  0  0  0  0  0
   -5.7676    1.2699    0.8335 C   0  0  0  0  0  0  0  0  0  0  0  0
   -0.7401   -1.4308    0.0873 C   0  0  0  0  0  0  0  0  0  0  0  0
   -2.8948   -1.8629    0.1993 C   0  0  0  0  0  0  0  0  0  0  0  0
   -0.9844   -2.7937    0.0341 C   0  0  0  0  0  0  0  0  0  0  0  0
    0.1239   -3.6275   -0.0761 C   0  0  0  0  0  0  0  0  0  0  0  0
    1.4467   -1.7256   -0.0619 C   0  0  0  0  0  0  0  0  0  0  0  0
    3.0611    0.1215   -0.0728 C   0  0  0  0  0  0  0  0  0  0  0  0
    4.4311    0.1755   -0.1564 C   0  0  0  0  0  0  0  0  0  0  0  0
    4.8313   -1.1711   -0.2473 C   0  0  0  0  0  0  0  0  0  0  0  0
    5.2280    1.3637   -0.1484 C   0  0  0  0  0  0  0  0  0  0  0  0
    7.4620    2.3579    0.4324 C   0  0  0  0  0  0  0  0  0  0  0  0
   -2.2101    0.6602   -1.9330 H   0  0  0  0  0  0  0  0  0  0  0  0
   -1.4086    1.0460    0.7903 H   0  0  0  0  0  0  0  0  0  0  0  0
   -4.5251    0.4439   -1.3825 H   0  0  0  0  0  0  0  0  0  0  0  0
   -4.1377    2.6627    0.7076 H   0  0  0  0  0  0  0  0  0  0  0  0
   -5.9842    0.2105    0.6622 H   0  0  0  0  0  0  0  0  0  0  0  0
   -6.5035    1.8726    0.2940 H   0  0  0  0  0  0  0  0  0  0  0  0
   -0.9557    2.3500   -1.0949 H   0  0  0  0  0  0  0  0  0  0  0  0
   -5.5046    2.4848   -1.7535 H   0  0  0  0  0  0  0  0  0  0  0  0
   -3.9589   -1.6838    0.2704 H   0  0  0  0  0  0  0  0  0  0  0  0
   -5.2547    0.9817    2.6881 H   0  0  0  0  0  0  0  0  0  0  0  0
   -0.9531   -5.4367   -0.0996 H   0  0  0  0  0  0  0  0  0  0  0  0
    0.7896   -5.6080   -0.2154 H   0  0  0  0  0  0  0  0  0  0  0  0
    2.3235    0.9094    0.0126 H   0  0  0  0  0  0  0  0  0  0  0  0
    5.8290   -1.5779   -0.3331 H   0  0  0  0  0  0  0  0  0  0  0  0
    6.8679    0.3448    0.6743 H   0  0  0  0  0  0  0  0  0  0  0  0
    7.3641    3.0018   -0.4452 H   0  0  0  0  0  0  0  0  0  0  0  0
    8.4795    1.9669    0.5008 H   0  0  0  0  0  0  0  0  0  0  0  0
    7.2200    2.9278    1.3329 H   0  0  0  0  0  0  0  0  0  0  0  0
  1 15  1  0  0  0  0
  1 17  1  0  0  0  0
  2 14  1  0  0  0  0
  2 35  1  0  0  0  0
  3 16  1  0  0  0  0
  3 36  1  0  0  0  0
  4 18  1  0  0  0  0
  4 38  1  0  0  0  0
  5 27  2  0  0  0  0
  6 15  1  0  0  0  0
  6 19  1  0  0  0  0
  6 20  1  0  0  0  0
  7 20  2  0  0  0  0
  7 21  1  0  0  0  0
  8 19  2  0  0  0  0
  8 23  1  0  0  0  0
  9 22  1  0  0  0  0
  9 23  2  0  0  0  0
 10 12  1  0  0  0  0
 10 23  1  0  0  0  0
 10 24  2  0  0  0  0
 11 22  1  0  0  0  0
 11 39  1  0  0  0  0
 11 40  1  0  0  0  0
 12 26  1  0  0  0  0
 13 27  1  0  0  0  0
 13 28  1  0  0  0  0
 13 43  1  0  0  0  0
 14 15  1  1  0  0  0
 14 29  1  0  0  0  0
 15 30  1  1  0  0  0
 16 14  1  6  0  0  0
 16 31  1  0  0  0  0
 17 16  1  6  0  0  0
 17 18  1  0  0  0  0
 17 32  1  0  0  0  0
 18 33  1  0  0  0  0
 18 34  1  0  0  0  0
 19 21  1  0  0  0  0
 20 37  1  0  0  0  0
 21 22  2  0  0  0  0
 24 25  1  0  0  0  0
 24 41  1  0  0  0  0
 25 26  2  0  0  0  0
 25 27  1  0  0  0  0
 26 42  1  0  0  0  0
 28 44  1  0  0  0  0
 28 45  1  0  0  0  0
 28 46  1  0  0  0  0
M  END
