DB06589
 OpenBabel07062211533D

 54 57  0  0  0  0  0  0  0  0999 V2000
   -4.4288    2.3675   -0.8248 S   0  0  0  0  0  0  0  0  0  0  0  0
   -3.3174    2.3122   -1.7621 O   0  0  0  0  0  0  0  0  0  0  0  0
   -5.6382    3.0971   -1.1742 O   0  0  0  0  0  0  0  0  0  0  0  0
    6.3298    0.7224   -0.9275 N   0  0  0  0  0  0  0  0  0  0  0  0
    0.7541   -0.2262    0.2481 N   0  0  0  0  0  0  0  0  0  0  0  0
    5.1806    0.7421   -1.6304 N   0  0  0  0  0  0  0  0  0  0  0  0
   -3.2832   -2.6170   -0.3299 N   0  0  0  0  0  0  0  0  0  0  0  0
   -1.2910   -1.4119   -0.0394 N   0  0  0  0  0  0  0  0  0  0  0  0
   -1.2493   -3.7608   -0.5763 N   0  0  0  0  0  0  0  0  0  0  0  0
   -3.8565    2.9386    0.6798 N   0  0  0  0  0  0  0  0  0  0  0  0
    4.8452    0.2033    0.5506 C   0  0  0  0  0  0  0  0  0  0  0  0
    4.2288    0.4217   -0.7361 C   0  0  0  0  0  0  0  0  0  0  0  0
    6.1872    0.4034    0.3913 C   0  0  0  0  0  0  0  0  0  0  0  0
    2.1653   -0.0659    0.2964 C   0  0  0  0  0  0  0  0  0  0  0  0
    2.8373    0.2877   -0.8943 C   0  0  0  0  0  0  0  0  0  0  0  0
    4.2137   -0.1448    1.7379 C   0  0  0  0  0  0  0  0  0  0  0  0
    2.8232   -0.2714    1.5498 C   0  0  0  0  0  0  0  0  0  0  0  0
    7.3265    0.3310    1.3257 C   0  0  0  0  0  0  0  0  0  0  0  0
    0.0579   -1.4282   -0.0325 C   0  0  0  0  0  0  0  0  0  0  0  0
   -4.8750    0.7279   -0.4066 C   0  0  0  0  0  0  0  0  0  0  0  0
    7.5668    1.0301   -1.6089 C   0  0  0  0  0  0  0  0  0  0  0  0
   -6.1592    0.4209    0.0435 C   0  0  0  0  0  0  0  0  0  0  0  0
   -4.2215   -1.6255   -0.2081 C   0  0  0  0  0  0  0  0  0  0  0  0
   -0.0102    1.0261    0.2440 C   0  0  0  0  0  0  0  0  0  0  0  0
   -3.9198   -0.2810   -0.5309 C   0  0  0  0  0  0  0  0  0  0  0  0
   -6.4878   -0.8948    0.3699 C   0  0  0  0  0  0  0  0  0  0  0  0
   -5.5327   -1.9035    0.2458 C   0  0  0  0  0  0  0  0  0  0  0  0
   -1.8715   -2.5954   -0.3144 C   0  0  0  0  0  0  0  0  0  0  0  0
    0.8131   -2.5550   -0.2840 C   0  0  0  0  0  0  0  0  0  0  0  0
   -7.2054    1.4772    0.1875 C   0  0  0  0  0  0  0  0  0  0  0  0
    0.0986   -3.7044   -0.5527 C   0  0  0  0  0  0  0  0  0  0  0  0
    2.3311    0.4407   -1.8390 H   0  0  0  0  0  0  0  0  0  0  0  0
    4.6896   -0.3052    2.6948 H   0  0  0  0  0  0  0  0  0  0  0  0
    2.2195   -0.5421    2.4171 H   0  0  0  0  0  0  0  0  0  0  0  0
    8.0216   -0.4603    1.0265 H   0  0  0  0  0  0  0  0  0  0  0  0
    7.8731    1.2796    1.3475 H   0  0  0  0  0  0  0  0  0  0  0  0
    7.0056    0.1168    2.3493 H   0  0  0  0  0  0  0  0  0  0  0  0
    8.2527    0.1892   -1.4813 H   0  0  0  0  0  0  0  0  0  0  0  0
    7.3700    1.1856   -2.6731 H   0  0  0  0  0  0  0  0  0  0  0  0
    7.9828    1.9413   -1.1724 H   0  0  0  0  0  0  0  0  0  0  0  0
   -0.3386    1.2706   -0.7724 H   0  0  0  0  0  0  0  0  0  0  0  0
    0.5839    1.8685    0.6188 H   0  0  0  0  0  0  0  0  0  0  0  0
   -0.8910    0.9536    0.8924 H   0  0  0  0  0  0  0  0  0  0  0  0
   -2.9442   -0.0190   -0.9258 H   0  0  0  0  0  0  0  0  0  0  0  0
   -7.4837   -1.1525    0.7208 H   0  0  0  0  0  0  0  0  0  0  0  0
   -5.8083   -2.9238    0.5056 H   0  0  0  0  0  0  0  0  0  0  0  0
   -3.6516   -3.5611   -0.3909 H   0  0  0  0  0  0  0  0  0  0  0  0
    1.8945   -2.5880   -0.2830 H   0  0  0  0  0  0  0  0  0  0  0  0
   -6.8546    2.3262    0.7819 H   0  0  0  0  0  0  0  0  0  0  0  0
   -7.5898    1.7916   -0.7873 H   0  0  0  0  0  0  0  0  0  0  0  0
   -8.0706    1.0865    0.7382 H   0  0  0  0  0  0  0  0  0  0  0  0
    0.6050   -4.6404   -0.7628 H   0  0  0  0  0  0  0  0  0  0  0  0
   -2.8454    3.0910    0.7789 H   0  0  0  0  0  0  0  0  0  0  0  0
   -4.4321    3.6277    1.1790 H   0  0  0  0  0  0  0  0  0  0  0  0
  1  2  2  0  0  0  0
  1  3  2  0  0  0  0
  1 10  1  0  0  0  0
  1 20  1  0  0  0  0
  4  6  1  0  0  0  0
  4 13  2  0  0  0  0
  4 21  1  0  0  0  0
  5 14  1  0  0  0  0
  5 19  1  0  0  0  0
  5 24  1  0  0  0  0
  6 12  2  0  0  0  0
  7 23  1  0  0  0  0
  7 28  1  0  0  0  0
  7 47  1  0  0  0  0
  8 19  2  0  0  0  0
  8 28  1  0  0  0  0
  9 28  2  0  0  0  0
  9 31  1  0  0  0  0
 10 53  1  0  0  0  0
 10 54  1  0  0  0  0
 11 12  1  0  0  0  0
 11 13  1  0  0  0  0
 11 16  2  0  0  0  0
 12 15  2  0  0  0  0
 13 18  1  0  0  0  0
 14 15  1  0  0  0  0
 14 17  2  0  0  0  0
 15 32  1  0  0  0  0
 16 17  1  0  0  0  0
 16 33  1  0  0  0  0
 17 34  1  0  0  0  0
 18 35  1  0  0  0  0
 18 36  1  0  0  0  0
 18 37  1  0  0  0  0
 19 29  1  0  0  0  0
 20 22  2  0  0  0  0
 20 25  1  0  0  0  0
 21 38  1  0  0  0  0
 21 39  1  0  0  0  0
 21 40  1  0  0  0  0
 22 26  1  0  0  0  0
 22 30  1  0  0  0  0
 23 25  2  0  0  0  0
 23 27  1  0  0  0  0
 24 41  1  0  0  0  0
 24 42  1  0  0  0  0
 24 43  1  0  0  0  0
 25 44  1  0  0  0  0
 26 27  2  0  0  0  0
 26 45  1  0  0  0  0
 27 46  1  0  0  0  0
 29 31  2  0  0  0  0
 29 48  1  0  0  0  0
 30 49  1  0  0  0  0
 30 50  1  0  0  0  0
 30 51  1  0  0  0  0
 31 52  1  0  0  0  0
M  END
