DB06193
 OpenBabel07062211533D

 43 45  0  0  0  0  0  0  0  0999 V2000
   -2.7003    1.8460   -0.0189 O   0  0  0  0  0  0  0  0  0  0  0  0
    2.6383    2.0830    0.0074 O   0  0  0  0  0  0  0  0  0  0  0  0
   -2.7217   -0.7669   -0.0392 N   0  0  0  0  0  0  0  0  0  0  0  0
    2.8898   -0.5212   -0.0120 N   0  0  0  0  0  0  0  0  0  0  0  0
    0.5315    5.6311    0.0353 N   0  0  0  0  0  0  0  0  0  0  0  0
   -5.5601   -3.1319   -0.1165 N   0  0  0  0  0  0  0  0  0  0  0  0
    5.9250   -2.6287    0.0271 N   0  0  0  0  0  0  0  0  0  0  0  0
   -0.6707    0.6168   -0.0182 C   0  0  0  0  0  0  0  0  0  0  0  0
    0.7255    0.6773   -0.0114 C   0  0  0  0  0  0  0  0  0  0  0  0
   -1.3151   -0.6257   -0.0311 C   0  0  0  0  0  0  0  0  0  0  0  0
    1.4763   -0.5040   -0.0179 C   0  0  0  0  0  0  0  0  0  0  0  0
   -1.4759    1.8568   -0.0117 C   0  0  0  0  0  0  0  0  0  0  0  0
    1.4182    1.9826    0.0025 C   0  0  0  0  0  0  0  0  0  0  0  0
   -0.7810    3.1595    0.0047 C   0  0  0  0  0  0  0  0  0  0  0  0
    0.6091    3.2141    0.0114 C   0  0  0  0  0  0  0  0  0  0  0  0
   -0.5628   -1.8007   -0.0375 C   0  0  0  0  0  0  0  0  0  0  0  0
    0.8295   -1.7400   -0.0309 C   0  0  0  0  0  0  0  0  0  0  0  0
   -3.3713   -2.0390   -0.0532 C   0  0  0  0  0  0  0  0  0  0  0  0
    3.6486   -1.7314   -0.0187 C   0  0  0  0  0  0  0  0  0  0  0  0
   -1.5173    4.3436    0.0133 C   0  0  0  0  0  0  0  0  0  0  0  0
    1.2150    4.4643    0.0264 C   0  0  0  0  0  0  0  0  0  0  0  0
   -4.8812   -1.8423   -0.0937 C   0  0  0  0  0  0  0  0  0  0  0  0
    5.1355   -1.4035    0.0252 C   0  0  0  0  0  0  0  0  0  0  0  0
   -0.8169    5.5399    0.0285 C   0  0  0  0  0  0  0  0  0  0  0  0
   -1.0060   -2.7917   -0.0460 H   0  0  0  0  0  0  0  0  0  0  0  0
    1.3575   -2.6884   -0.0379 H   0  0  0  0  0  0  0  0  0  0  0  0
   -3.2836    0.0752   -0.0265 H   0  0  0  0  0  0  0  0  0  0  0  0
    3.3755    0.3670   -0.0099 H   0  0  0  0  0  0  0  0  0  0  0  0
   -3.1110   -2.6132    0.8450 H   0  0  0  0  0  0  0  0  0  0  0  0
   -3.0714   -2.6161   -0.9373 H   0  0  0  0  0  0  0  0  0  0  0  0
    3.4382   -2.3116   -0.9260 H   0  0  0  0  0  0  0  0  0  0  0  0
    3.4000   -2.3459    0.8560 H   0  0  0  0  0  0  0  0  0  0  0  0
   -2.6016    4.3543    0.0087 H   0  0  0  0  0  0  0  0  0  0  0  0
    2.2939    4.5823    0.0322 H   0  0  0  0  0  0  0  0  0  0  0  0
   -5.1659   -1.2712   -0.9848 H   0  0  0  0  0  0  0  0  0  0  0  0
   -5.2152   -1.2698    0.7795 H   0  0  0  0  0  0  0  0  0  0  0  0
    5.3749   -0.8203    0.9216 H   0  0  0  0  0  0  0  0  0  0  0  0
    5.4205   -0.7931   -0.8393 H   0  0  0  0  0  0  0  0  0  0  0  0
   -1.3426    6.4893    0.0358 H   0  0  0  0  0  0  0  0  0  0  0  0
   -6.5682   -2.9837   -0.0931 H   0  0  0  0  0  0  0  0  0  0  0  0
   -5.3291   -3.6571    0.7259 H   0  0  0  0  0  0  0  0  0  0  0  0
    5.7036   -3.1808   -0.8008 H   0  0  0  0  0  0  0  0  0  0  0  0
    5.6625   -3.2050    0.8259 H   0  0  0  0  0  0  0  0  0  0  0  0
  1 12  2  0  0  0  0
  2 13  2  0  0  0  0
  3 10  1  0  0  0  0
  3 18  1  0  0  0  0
  3 27  1  0  0  0  0
  4 11  1  0  0  0  0
  4 19  1  0  0  0  0
  4 28  1  0  0  0  0
  5 21  2  0  0  0  0
  5 24  1  0  0  0  0
  6 22  1  0  0  0  0
  6 40  1  0  0  0  0
  6 41  1  0  0  0  0
  7 23  1  0  0  0  0
  7 42  1  0  0  0  0
  7 43  1  0  0  0  0
  8  9  2  0  0  0  0
  8 10  1  0  0  0  0
  8 12  1  0  0  0  0
  9 11  1  0  0  0  0
  9 13  1  0  0  0  0
 10 16  2  0  0  0  0
 11 17  2  0  0  0  0
 12 14  1  0  0  0  0
 13 15  1  0  0  0  0
 14 15  2  0  0  0  0
 14 20  1  0  0  0  0
 15 21  1  0  0  0  0
 16 17  1  0  0  0  0
 16 25  1  0  0  0  0
 17 26  1  0  0  0  0
 18 22  1  0  0  0  0
 18 29  1  0  0  0  0
 18 30  1  0  0  0  0
 19 23  1  0  0  0  0
 19 31  1  0  0  0  0
 19 32  1  0  0  0  0
 20 24  2  0  0  0  0
 20 33  1  0  0  0  0
 21 34  1  0  0  0  0
 22 35  1  0  0  0  0
 22 36  1  0  0  0  0
 23 37  1  0  0  0  0
 23 38  1  0  0  0  0
 24 39  1  0  0  0  0
M  END
