DB06154
 OpenBabel07062211533D

 29 28  0  0  0  0  0  0  0  0999 V2000
   -2.3021   -0.8794   -0.1432 O   0  0  0  0  0  0  0  0  0  0  0  0
   -0.8527    2.2900    0.1614 O   0  0  0  0  0  0  0  0  0  0  0  0
    2.3061    0.8340   -0.1570 O   0  0  0  0  0  0  0  0  0  0  0  0
    0.8426   -2.3085    0.1387 O   0  0  0  0  0  0  0  0  0  0  0  0
   -3.2101   -1.1174   -2.1483 O   0  0  0  0  0  0  0  0  0  0  0  0
   -1.1760    3.1579    2.1719 O   0  0  0  0  0  0  0  0  0  0  0  0
    3.1891    1.1989   -2.1532 O   0  0  0  0  0  0  0  0  0  0  0  0
    1.1995   -3.1763    2.1445 O   0  0  0  0  0  0  0  0  0  0  0  0
   -4.4188   -1.6800   -0.3610 O   0  0  0  0  0  0  0  0  0  0  0  0
   -1.6505    4.4071    0.3869 O   0  0  0  0  0  0  0  0  0  0  0  0
    4.4356    1.6070   -0.3502 O   0  0  0  0  0  0  0  0  0  0  0  0
    1.6123   -4.4371    0.3525 O   0  0  0  0  0  0  0  0  0  0  0  0
   -3.4146   -1.2626   -0.9424 N   0  0  0  0  0  0  0  0  0  0  0  0
   -1.2651    3.3885    0.9654 N   0  0  0  0  0  0  0  0  0  0  0  0
    3.4145    1.2524   -0.9436 N   0  0  0  0  0  0  0  0  0  0  0  0
    1.2566   -3.4112    0.9369 N   0  0  0  0  0  0  0  0  0  0  0  0
    0.0095    0.0014   -0.0122 C   0  0  0  0  0  0  0  0  0  0  0  0
   -1.1933   -0.4116   -0.9002 C   0  0  0  0  0  0  0  0  0  0  0  0
   -0.4264    1.1627    0.9162 C   0  0  0  0  0  0  0  0  0  0  0  0
    1.1769    0.4441   -0.9295 C   0  0  0  0  0  0  0  0  0  0  0  0
    0.4517   -1.1727    0.8978 C   0  0  0  0  0  0  0  0  0  0  0  0
   -1.4977    0.4506   -1.5087 H   0  0  0  0  0  0  0  0  0  0  0  0
   -0.8605   -1.2080   -1.5800 H   0  0  0  0  0  0  0  0  0  0  0  0
   -1.2470    0.8187    1.5605 H   0  0  0  0  0  0  0  0  0  0  0  0
    0.4210    1.4465    1.5549 H   0  0  0  0  0  0  0  0  0  0  0  0
    0.8443    1.2845   -1.5534 H   0  0  0  0  0  0  0  0  0  0  0  0
    1.4496   -0.3928   -1.5864 H   0  0  0  0  0  0  0  0  0  0  0  0
    1.2903   -0.8420    1.5254 H   0  0  0  0  0  0  0  0  0  0  0  0
   -0.3845   -1.4446    1.5563 H   0  0  0  0  0  0  0  0  0  0  0  0
  1 13  1  0  0  0  0
  1 18  1  0  0  0  0
  2 14  1  0  0  0  0
  2 19  1  0  0  0  0
  3 15  1  0  0  0  0
  3 20  1  0  0  0  0
  4 16  1  0  0  0  0
  4 21  1  0  0  0  0
  5 13  1  0  0  0  0
  6 14  1  0  0  0  0
  7 15  1  0  0  0  0
  8 16  1  0  0  0  0
  9 13  2  0  0  0  0
 10 14  2  0  0  0  0
 11 15  2  0  0  0  0
 12 16  2  0  0  0  0
 17 18  1  0  0  0  0
 17 19  1  0  0  0  0
 17 20  1  0  0  0  0
 17 21  1  0  0  0  0
 18 22  1  0  0  0  0
 18 23  1  0  0  0  0
 19 24  1  0  0  0  0
 19 25  1  0  0  0  0
 20 26  1  0  0  0  0
 20 27  1  0  0  0  0
 21 28  1  0  0  0  0
 21 29  1  0  0  0  0
M  END
