DB06209
 OpenBabel07062211533D

 46 49  0  0  1  0  0  0  0  0999 V2000
   -3.6521    2.3534   -0.0695 S   0  0  0  0  0  0  0  0  0  0  0  0
    3.4526    0.1898    2.1965 F   0  0  0  0  0  0  0  0  0  0  0  0
    1.7319   -1.3934   -2.0757 O   0  0  0  0  0  0  0  0  0  0  0  0
   -5.6122    0.6707   -0.6340 O   0  0  0  0  0  0  0  0  0  0  0  0
   -5.7795   -0.7493    1.1950 O   0  0  0  0  0  0  0  0  0  0  0  0
    0.3898    0.4632   -0.1472 N   0  0  0  0  0  0  0  0  0  0  0  0
    1.6035   -2.8124   -0.2021 C   0  0  0  0  0  0  0  0  0  0  0  0
    2.6792   -3.7933   -0.5154 C   0  0  0  0  0  0  0  0  0  0  0  0
    2.6236   -3.1373    0.8331 C   0  0  0  0  0  0  0  0  0  0  0  0
    1.6575   -1.4684   -0.8547 C   0  0  0  0  0  0  0  0  0  0  0  0
    1.6319   -0.2742    0.0853 C   0  0  1  0  0  0  0  0  0  0  0  0
    0.3027    1.6301    0.7557 C   0  0  0  0  0  0  0  0  0  0  0  0
   -0.7728   -0.4388    0.0136 C   0  0  0  0  0  0  0  0  0  0  0  0
    2.8594    0.5983   -0.0655 C   0  0  0  0  0  0  0  0  0  0  0  0
   -0.8857    2.5376    0.3798 C   0  0  0  0  0  0  0  0  0  0  0  0
   -2.0488    0.3394   -0.1038 C   0  0  0  0  0  0  0  0  0  0  0  0
   -2.0911    1.7047    0.0926 C   0  0  0  0  0  0  0  0  0  0  0  0
   -3.3469   -0.1807   -0.3880 C   0  0  0  0  0  0  0  0  0  0  0  0
    3.7031    0.7757    1.0174 C   0  0  0  0  0  0  0  0  0  0  0  0
    3.1104    1.2008   -1.2860 C   0  0  0  0  0  0  0  0  0  0  0  0
   -4.3101    0.8061   -0.4013 C   0  0  0  0  0  0  0  0  0  0  0  0
    4.8334    1.5808    0.8750 C   0  0  0  0  0  0  0  0  0  0  0  0
    4.2406    2.0058   -1.4283 C   0  0  0  0  0  0  0  0  0  0  0  0
    5.1020    2.1960   -0.3477 C   0  0  0  0  0  0  0  0  0  0  0  0
   -6.2599   -0.1509    0.2401 C   0  0  0  0  0  0  0  0  0  0  0  0
   -7.7127   -0.2180   -0.1294 C   0  0  0  0  0  0  0  0  0  0  0  0
    0.6057   -3.2157   -0.0675 H   0  0  0  0  0  0  0  0  0  0  0  0
    3.4809   -3.5004   -1.1824 H   0  0  0  0  0  0  0  0  0  0  0  0
    2.4081   -4.8402   -0.5775 H   0  0  0  0  0  0  0  0  0  0  0  0
    2.3119   -3.7426    1.6758 H   0  0  0  0  0  0  0  0  0  0  0  0
    3.4063   -2.4260    1.0649 H   0  0  0  0  0  0  0  0  0  0  0  0
    1.6050   -0.6626    1.1124 H   0  0  0  0  0  0  0  0  0  0  0  0
    1.1892    2.2711    0.7152 H   0  0  0  0  0  0  0  0  0  0  0  0
    0.1979    1.2951    1.7972 H   0  0  0  0  0  0  0  0  0  0  0  0
   -0.7577   -0.9430    0.9888 H   0  0  0  0  0  0  0  0  0  0  0  0
   -0.7930   -1.2012   -0.7730 H   0  0  0  0  0  0  0  0  0  0  0  0
   -0.6330    3.1188   -0.5160 H   0  0  0  0  0  0  0  0  0  0  0  0
   -1.0800    3.2431    1.1956 H   0  0  0  0  0  0  0  0  0  0  0  0
   -3.5573   -1.2264   -0.5763 H   0  0  0  0  0  0  0  0  0  0  0  0
    2.4458    1.0804   -2.1357 H   0  0  0  0  0  0  0  0  0  0  0  0
    5.5036    1.7289    1.7165 H   0  0  0  0  0  0  0  0  0  0  0  0
    4.4479    2.4880   -2.3790 H   0  0  0  0  0  0  0  0  0  0  0  0
    5.9814    2.8237   -0.4582 H   0  0  0  0  0  0  0  0  0  0  0  0
   -8.1634    0.7737   -0.0419 H   0  0  0  0  0  0  0  0  0  0  0  0
   -7.8192   -0.6016   -1.1472 H   0  0  0  0  0  0  0  0  0  0  0  0
   -8.2298   -0.8986    0.5531 H   0  0  0  0  0  0  0  0  0  0  0  0
  1 17  1  0  0  0  0
  1 21  1  0  0  0  0
  2 19  1  0  0  0  0
  3 10  2  0  0  0  0
  4 21  1  0  0  0  0
  4 25  1  0  0  0  0
  5 25  2  0  0  0  0
  6 11  1  0  0  0  0
  6 12  1  0  0  0  0
  6 13  1  0  0  0  0
  7  8  1  0  0  0  0
  7  9  1  0  0  0  0
  7 10  1  0  0  0  0
  7 27  1  0  0  0  0
  8  9  1  0  0  0  0
  8 28  1  0  0  0  0
  8 29  1  0  0  0  0
  9 30  1  0  0  0  0
  9 31  1  0  0  0  0
 10 11  1  0  0  0  0
 11 14  1  0  0  0  0
 11 32  1  1  0  0  0
 12 15  1  0  0  0  0
 12 33  1  0  0  0  0
 12 34  1  0  0  0  0
 13 16  1  0  0  0  0
 13 35  1  0  0  0  0
 13 36  1  0  0  0  0
 14 19  2  0  0  0  0
 14 20  1  0  0  0  0
 15 17  1  0  0  0  0
 15 37  1  0  0  0  0
 15 38  1  0  0  0  0
 16 17  2  0  0  0  0
 16 18  1  0  0  0  0
 18 21  2  0  0  0  0
 18 39  1  0  0  0  0
 19 22  1  0  0  0  0
 20 23  2  0  0  0  0
 20 40  1  0  0  0  0
 22 24  2  0  0  0  0
 22 41  1  0  0  0  0
 23 24  1  0  0  0  0
 23 42  1  0  0  0  0
 24 43  1  0  0  0  0
 25 26  1  0  0  0  0
 26 44  1  0  0  0  0
 26 45  1  0  0  0  0
 26 46  1  0  0  0  0
M  END
