DB06803
 OpenBabel07062211533D

 29 30  0  0  0  0  0  0  0  0999 V2000
    1.5251   -2.8806    0.7074 Cl  0  0  0  0  0  0  0  0  0  0  0  0
   -4.3712   -3.0654   -0.7249 Cl  0  0  0  0  0  0  0  0  0  0  0  0
   -2.9737    2.4983    0.5362 O   0  0  0  0  0  0  0  0  0  0  0  0
   -0.5893    1.8605   -0.5173 O   0  0  0  0  0  0  0  0  0  0  0  0
    6.1352    1.2159   -0.2966 O   0  0  0  0  0  0  0  0  0  0  0  0
    6.3158   -0.9145    0.2202 O   0  0  0  0  0  0  0  0  0  0  0  0
    0.0331   -0.3055    0.0859 N   0  0  0  0  0  0  0  0  0  0  0  0
    5.6243    0.1029   -0.0261 N   0  0  0  0  0  0  0  0  0  0  0  0
    1.4483   -0.2291    0.0626 C   0  0  0  0  0  0  0  0  0  0  0  0
   -2.2877    0.2960   -0.1229 C   0  0  0  0  0  0  0  0  0  0  0  0
   -0.8921    0.7065   -0.1950 C   0  0  0  0  0  0  0  0  0  0  0  0
    2.2228   -1.3450    0.3321 C   0  0  0  0  0  0  0  0  0  0  0  0
    2.0255    0.9948   -0.2361 C   0  0  0  0  0  0  0  0  0  0  0  0
   -3.2823    1.2043    0.2394 C   0  0  0  0  0  0  0  0  0  0  0  0
    4.2095   -0.0102    0.0031 C   0  0  0  0  0  0  0  0  0  0  0  0
   -2.6240   -1.0243   -0.4216 C   0  0  0  0  0  0  0  0  0  0  0  0
    3.6129   -1.2352    0.3021 C   0  0  0  0  0  0  0  0  0  0  0  0
    3.4156    1.1048   -0.2659 C   0  0  0  0  0  0  0  0  0  0  0  0
   -4.6134    0.7923    0.3028 C   0  0  0  0  0  0  0  0  0  0  0  0
   -3.9551   -1.4363   -0.3581 C   0  0  0  0  0  0  0  0  0  0  0  0
   -4.9498   -0.5280    0.0041 C   0  0  0  0  0  0  0  0  0  0  0  0
   -0.3125   -1.2170    0.3741 H   0  0  0  0  0  0  0  0  0  0  0  0
    1.4992    1.9117   -0.4474 H   0  0  0  0  0  0  0  0  0  0  0  0
   -1.8804   -1.7468   -0.7482 H   0  0  0  0  0  0  0  0  0  0  0  0
    4.2144   -2.1165    0.5152 H   0  0  0  0  0  0  0  0  0  0  0  0
    3.8468    2.0750   -0.5003 H   0  0  0  0  0  0  0  0  0  0  0  0
   -5.3931    1.4948    0.5846 H   0  0  0  0  0  0  0  0  0  0  0  0
   -5.9912   -0.8350    0.0580 H   0  0  0  0  0  0  0  0  0  0  0  0
   -2.0126    2.6315    0.5323 H   0  0  0  0  0  0  0  0  0  0  0  0
  1 12  1  0  0  0  0
  2 20  1  0  0  0  0
  3 14  1  0  0  0  0
  3 29  1  0  0  0  0
  4 11  2  0  0  0  0
  5  8  1  0  0  0  0
  6  8  2  0  0  0  0
  7  9  1  0  0  0  0
  7 11  1  0  0  0  0
  7 22  1  0  0  0  0
  8 15  1  0  0  0  0
  9 12  2  0  0  0  0
  9 13  1  0  0  0  0
 10 11  1  0  0  0  0
 10 14  2  0  0  0  0
 10 16  1  0  0  0  0
 12 17  1  0  0  0  0
 13 18  2  0  0  0  0
 13 23  1  0  0  0  0
 14 19  1  0  0  0  0
 15 17  2  0  0  0  0
 15 18  1  0  0  0  0
 16 20  2  0  0  0  0
 16 24  1  0  0  0  0
 17 25  1  0  0  0  0
 18 26  1  0  0  0  0
 19 21  2  0  0  0  0
 19 27  1  0  0  0  0
 20 21  1  0  0  0  0
 21 28  1  0  0  0  0
M  END
