DB06203
 OpenBabel07062211533D

 46 48  0  0  1  0  0  0  0  0999 V2000
   -3.2505    1.3496   -1.3878 O   0  0  0  0  0  0  0  0  0  0  0  0
   -0.8870    4.3785    1.2393 O   0  0  0  0  0  0  0  0  0  0  0  0
    1.1600    0.3610    0.0718 N   0  0  0  0  0  0  0  0  0  0  0  0
   -1.0928    0.8325   -0.6919 N   0  0  0  0  0  0  0  0  0  0  0  0
    4.6158    0.4874   -1.3416 N   0  0  0  0  0  0  0  0  0  0  0  0
   -2.1156    2.9018   -0.0945 N   0  0  0  0  0  0  0  0  0  0  0  0
   -1.1057   -3.5196   -3.3481 N   0  0  0  0  0  0  0  0  0  0  0  0
    3.5719    0.5617   -0.3209 C   0  0  1  0  0  0  0  0  0  0  0  0
    2.1955    0.3522   -0.9651 C   0  0  0  0  0  0  0  0  0  0  0  0
    3.8207   -0.4754    0.7829 C   0  0  0  0  0  0  0  0  0  0  0  0
    2.6848   -0.4534    1.8060 C   0  0  0  0  0  0  0  0  0  0  0  0
    1.3266   -0.6343    1.1316 C   0  0  0  0  0  0  0  0  0  0  0  0
    0.0698    1.1790    0.0056 C   0  0  0  0  0  0  0  0  0  0  0  0
    0.1225    2.3626    0.6396 C   0  0  0  0  0  0  0  0  0  0  0  0
   -1.1341   -0.4639   -1.3733 C   0  0  0  0  0  0  0  0  0  0  0  0
   -2.2266    1.6665   -0.7726 C   0  0  0  0  0  0  0  0  0  0  0  0
   -1.0004    3.3172    0.6296 C   0  0  0  0  0  0  0  0  0  0  0  0
   -1.6651   -1.5499   -0.4829 C   0  0  0  0  0  0  0  0  0  0  0  0
   -3.2702    3.7919   -0.1571 C   0  0  0  0  0  0  0  0  0  0  0  0
   -1.7871   -2.8601   -0.9355 C   0  0  0  0  0  0  0  0  0  0  0  0
   -2.0363   -1.2151    0.8162 C   0  0  0  0  0  0  0  0  0  0  0  0
   -2.2846   -3.8446   -0.0818 C   0  0  0  0  0  0  0  0  0  0  0  0
   -2.5336   -2.1996    1.6701 C   0  0  0  0  0  0  0  0  0  0  0  0
   -2.6578   -3.5142    1.2211 C   0  0  0  0  0  0  0  0  0  0  0  0
   -1.4110   -3.2244   -2.2676 C   0  0  0  0  0  0  0  0  0  0  0  0
    3.6065    1.5620    0.1292 H   0  0  0  0  0  0  0  0  0  0  0  0
    2.0057    1.1385   -1.7076 H   0  0  0  0  0  0  0  0  0  0  0  0
    2.1628   -0.6066   -1.4988 H   0  0  0  0  0  0  0  0  0  0  0  0
    4.7725   -0.2722    1.2881 H   0  0  0  0  0  0  0  0  0  0  0  0
    3.8954   -1.4816    0.3501 H   0  0  0  0  0  0  0  0  0  0  0  0
    2.8388   -1.2438    2.5490 H   0  0  0  0  0  0  0  0  0  0  0  0
    2.7027    0.5033    2.3431 H   0  0  0  0  0  0  0  0  0  0  0  0
    1.2486   -1.6415    0.7050 H   0  0  0  0  0  0  0  0  0  0  0  0
    0.5450   -0.5383    1.8937 H   0  0  0  0  0  0  0  0  0  0  0  0
    4.4161    1.1548   -2.0857 H   0  0  0  0  0  0  0  0  0  0  0  0
    4.6065   -0.4333   -1.7793 H   0  0  0  0  0  0  0  0  0  0  0  0
    1.0076    2.6656    1.1924 H   0  0  0  0  0  0  0  0  0  0  0  0
   -0.1495   -0.7239   -1.7713 H   0  0  0  0  0  0  0  0  0  0  0  0
   -1.8023   -0.3711   -2.2387 H   0  0  0  0  0  0  0  0  0  0  0  0
   -4.1300    3.2819    0.2891 H   0  0  0  0  0  0  0  0  0  0  0  0
   -3.5002    3.9992   -1.2071 H   0  0  0  0  0  0  0  0  0  0  0  0
   -3.0963    4.7343    0.3677 H   0  0  0  0  0  0  0  0  0  0  0  0
   -1.9791   -0.2169    1.2340 H   0  0  0  0  0  0  0  0  0  0  0  0
   -2.3880   -4.8742   -0.4158 H   0  0  0  0  0  0  0  0  0  0  0  0
   -2.8264   -1.9431    2.6841 H   0  0  0  0  0  0  0  0  0  0  0  0
   -3.0456   -4.2806    1.8860 H   0  0  0  0  0  0  0  0  0  0  0  0
  1 16  2  0  0  0  0
  2 17  2  0  0  0  0
  3  9  1  0  0  0  0
  3 12  1  0  0  0  0
  3 13  1  0  0  0  0
  4 13  1  0  0  0  0
  4 15  1  0  0  0  0
  4 16  1  0  0  0  0
  5  8  1  0  0  0  0
  5 35  1  0  0  0  0
  5 36  1  0  0  0  0
  6 16  1  0  0  0  0
  6 17  1  0  0  0  0
  6 19  1  0  0  0  0
  7 25  3  0  0  0  0
  8  9  1  0  0  0  0
  8 10  1  0  0  0  0
  8 26  1  1  0  0  0
  9 27  1  0  0  0  0
  9 28  1  0  0  0  0
 10 11  1  0  0  0  0
 10 29  1  0  0  0  0
 10 30  1  0  0  0  0
 11 12  1  0  0  0  0
 11 31  1  0  0  0  0
 11 32  1  0  0  0  0
 12 33  1  0  0  0  0
 12 34  1  0  0  0  0
 13 14  2  0  0  0  0
 14 17  1  0  0  0  0
 14 37  1  0  0  0  0
 15 18  1  0  0  0  0
 15 38  1  0  0  0  0
 15 39  1  0  0  0  0
 18 20  2  0  0  0  0
 18 21  1  0  0  0  0
 19 40  1  0  0  0  0
 19 41  1  0  0  0  0
 19 42  1  0  0  0  0
 20 22  1  0  0  0  0
 20 25  1  0  0  0  0
 21 23  2  0  0  0  0
 21 43  1  0  0  0  0
 22 24  2  0  0  0  0
 22 44  1  0  0  0  0
 23 24  1  0  0  0  0
 23 45  1  0  0  0  0
 24 46  1  0  0  0  0
M  END
