DB06714
 OpenBabel07062211533D

 32 32  0  0  1  0  0  0  0  0999 V2000
   -2.1737   -0.4965    0.9213 N   0  0  0  0  0  0  0  0  0  0  0  0
    0.6427    0.3257    0.2317 C   0  0  0  0  0  0  0  0  0  0  0  0
    1.0093   -0.7137   -0.8364 C   0  0  0  0  0  0  0  0  0  0  0  0
    1.8094    1.2920    0.4770 C   0  0  0  0  0  0  0  0  0  0  0  0
   -0.6165    1.0914   -0.1703 C   0  0  0  0  0  0  0  0  0  0  0  0
    2.2958   -1.4560   -0.4824 C   0  0  0  0  0  0  0  0  0  0  0  0
    3.0947    0.5462    0.8286 C   0  0  0  0  0  0  0  0  0  0  0  0
    3.4509   -0.4920   -0.2309 C   0  0  0  0  0  0  0  0  0  0  0  0
   -1.8534    0.1955   -0.3271 C   0  0  2  0  0  0  0  0  0  0  0  0
   -3.0614    1.0296   -0.7515 C   0  0  0  0  0  0  0  0  0  0  0  0
   -3.3149   -1.3800    0.7416 C   0  0  0  0  0  0  0  0  0  0  0  0
    0.4561   -0.2033    1.1758 H   0  0  0  0  0  0  0  0  0  0  0  0
    1.1289   -0.2254   -1.8119 H   0  0  0  0  0  0  0  0  0  0  0  0
    0.2206   -1.4644   -0.9459 H   0  0  0  0  0  0  0  0  0  0  0  0
    1.5595    1.9825    1.2911 H   0  0  0  0  0  0  0  0  0  0  0  0
    1.9818    1.9042   -0.4176 H   0  0  0  0  0  0  0  0  0  0  0  0
   -0.4347    1.6243   -1.1133 H   0  0  0  0  0  0  0  0  0  0  0  0
   -0.8228    1.8653    0.5820 H   0  0  0  0  0  0  0  0  0  0  0  0
    2.5602   -2.1433   -1.2941 H   0  0  0  0  0  0  0  0  0  0  0  0
    2.1297   -2.0679    0.4129 H   0  0  0  0  0  0  0  0  0  0  0  0
    2.9748    0.0505    1.7998 H   0  0  0  0  0  0  0  0  0  0  0  0
    3.9182    1.2615    0.9349 H   0  0  0  0  0  0  0  0  0  0  0  0
    4.3375   -1.0529    0.0856 H   0  0  0  0  0  0  0  0  0  0  0  0
    3.7116    0.0169   -1.1670 H   0  0  0  0  0  0  0  0  0  0  0  0
   -1.6678   -0.5327   -1.1242 H   0  0  0  0  0  0  0  0  0  0  0  0
   -2.7996    1.6714   -1.6012 H   0  0  0  0  0  0  0  0  0  0  0  0
   -3.4088    1.6863    0.0546 H   0  0  0  0  0  0  0  0  0  0  0  0
   -3.9021    0.4131   -1.0854 H   0  0  0  0  0  0  0  0  0  0  0  0
   -2.3718    0.1764    1.6608 H   0  0  0  0  0  0  0  0  0  0  0  0
   -4.2639   -0.8392    0.6771 H   0  0  0  0  0  0  0  0  0  0  0  0
   -3.3894   -2.0349    1.6162 H   0  0  0  0  0  0  0  0  0  0  0  0
   -3.2010   -2.0305   -0.1320 H   0  0  0  0  0  0  0  0  0  0  0  0
  1  9  1  0  0  0  0
  1 11  1  0  0  0  0
  1 29  1  0  0  0  0
  2  3  1  0  0  0  0
  2  4  1  0  0  0  0
  2  5  1  0  0  0  0
  2 12  1  0  0  0  0
  3  6  1  0  0  0  0
  3 13  1  0  0  0  0
  3 14  1  0  0  0  0
  4  7  1  0  0  0  0
  4 15  1  0  0  0  0
  4 16  1  0  0  0  0
  5  9  1  0  0  0  0
  5 17  1  0  0  0  0
  5 18  1  0  0  0  0
  6  8  1  0  0  0  0
  6 19  1  0  0  0  0
  6 20  1  0  0  0  0
  7  8  1  0  0  0  0
  7 21  1  0  0  0  0
  7 22  1  0  0  0  0
  8 23  1  0  0  0  0
  8 24  1  0  0  0  0
  9 10  1  0  0  0  0
  9 25  1  6  0  0  0
 10 26  1  0  0  0  0
 10 27  1  0  0  0  0
 10 28  1  0  0  0  0
 11 30  1  0  0  0  0
 11 31  1  0  0  0  0
 11 32  1  0  0  0  0
M  END
