DB06654
 OpenBabel07062211533D

 41 42  0  0  1  0  0  0  0  0999 V2000
    7.6519   -1.9568    0.6955 F   0  0  0  0  0  0  0  0  0  0  0  0
    2.5956    0.0720    0.5840 O   0  0  0  0  0  0  0  0  0  0  0  0
   -5.1991   -0.5255   -2.1268 O   0  0  0  0  0  0  0  0  0  0  0  0
   -3.6859    0.7027    0.0906 N   0  0  0  0  0  0  0  0  0  0  0  0
   -6.0670   -1.6745   -0.3386 N   0  0  0  0  0  0  0  0  0  0  0  0
   -3.0135   -0.5273    0.4817 C   0  0  0  0  0  0  0  0  0  0  0  0
   -5.1345    0.5175    0.0686 C   0  0  1  0  0  0  0  0  0  0  0  0
   -1.5209   -0.3675    0.5083 C   0  0  0  0  0  0  0  0  0  0  0  0
   -5.8264    1.8137   -0.3342 C   0  0  0  0  0  0  0  0  0  0  0  0
   -0.8949    0.0429    1.6793 C   0  0  0  0  0  0  0  0  0  0  0  0
   -0.7804   -0.6325   -0.6374 C   0  0  0  0  0  0  0  0  0  0  0  0
    1.2426   -0.0730    0.5591 C   0  0  0  0  0  0  0  0  0  0  0  0
    0.4920    0.1906    1.7048 C   0  0  0  0  0  0  0  0  0  0  0  0
    0.6064   -0.4847   -0.6121 C   0  0  0  0  0  0  0  0  0  0  0  0
   -5.4590   -0.5852   -0.9272 C   0  0  0  0  0  0  0  0  0  0  0  0
    3.3018   -0.2143   -0.6222 C   0  0  0  0  0  0  0  0  0  0  0  0
    4.7717   -0.0280   -0.3854 C   0  0  0  0  0  0  0  0  0  0  0  0
    5.5395   -1.1010    0.0528 C   0  0  0  0  0  0  0  0  0  0  0  0
    5.3519    1.2158   -0.6064 C   0  0  0  0  0  0  0  0  0  0  0  0
    6.9059   -0.9277    0.2730 C   0  0  0  0  0  0  0  0  0  0  0  0
    6.7184    1.3890   -0.3862 C   0  0  0  0  0  0  0  0  0  0  0  0
    7.4953    0.3172    0.0536 C   0  0  0  0  0  0  0  0  0  0  0  0
   -3.2337   -1.3574   -0.2000 H   0  0  0  0  0  0  0  0  0  0  0  0
   -3.3551   -0.8525    1.4737 H   0  0  0  0  0  0  0  0  0  0  0  0
   -5.4867    0.2464    1.0716 H   0  0  0  0  0  0  0  0  0  0  0  0
   -3.4517    1.4476    0.7469 H   0  0  0  0  0  0  0  0  0  0  0  0
   -6.9120    1.6725   -0.3789 H   0  0  0  0  0  0  0  0  0  0  0  0
   -5.6189    2.6124    0.3861 H   0  0  0  0  0  0  0  0  0  0  0  0
   -5.5018    2.1557   -1.3238 H   0  0  0  0  0  0  0  0  0  0  0  0
   -1.4696    0.2527    2.5772 H   0  0  0  0  0  0  0  0  0  0  0  0
   -1.2664   -0.9511   -1.5557 H   0  0  0  0  0  0  0  0  0  0  0  0
    0.9821    0.5121    2.6198 H   0  0  0  0  0  0  0  0  0  0  0  0
    1.1236   -0.7041   -1.5396 H   0  0  0  0  0  0  0  0  0  0  0  0
    2.9868    0.4628   -1.4276 H   0  0  0  0  0  0  0  0  0  0  0  0
    3.1328   -1.2525   -0.9381 H   0  0  0  0  0  0  0  0  0  0  0  0
    5.0910   -2.0746    0.2296 H   0  0  0  0  0  0  0  0  0  0  0  0
    4.7561    2.0584   -0.9465 H   0  0  0  0  0  0  0  0  0  0  0  0
   -6.2725   -1.7198    0.6542 H   0  0  0  0  0  0  0  0  0  0  0  0
   -6.3321   -2.4822   -0.8923 H   0  0  0  0  0  0  0  0  0  0  0  0
    7.1774    2.3584   -0.5564 H   0  0  0  0  0  0  0  0  0  0  0  0
    8.5592    0.4519    0.2254 H   0  0  0  0  0  0  0  0  0  0  0  0
  1 20  1  0  0  0  0
  2 12  1  0  0  0  0
  2 16  1  0  0  0  0
  3 15  2  0  0  0  0
  4  6  1  0  0  0  0
  4  7  1  0  0  0  0
  4 26  1  0  0  0  0
  5 15  1  0  0  0  0
  5 38  1  0  0  0  0
  5 39  1  0  0  0  0
  6  8  1  0  0  0  0
  6 23  1  0  0  0  0
  6 24  1  0  0  0  0
  7  9  1  0  0  0  0
  7 15  1  0  0  0  0
  7 25  1  1  0  0  0
  8 10  2  0  0  0  0
  8 11  1  0  0  0  0
  9 27  1  0  0  0  0
  9 28  1  0  0  0  0
  9 29  1  0  0  0  0
 10 13  1  0  0  0  0
 10 30  1  0  0  0  0
 11 14  2  0  0  0  0
 11 31  1  0  0  0  0
 12 13  2  0  0  0  0
 12 14  1  0  0  0  0
 13 32  1  0  0  0  0
 14 33  1  0  0  0  0
 16 17  1  0  0  0  0
 16 34  1  0  0  0  0
 16 35  1  0  0  0  0
 17 18  2  0  0  0  0
 17 19  1  0  0  0  0
 18 20  1  0  0  0  0
 18 36  1  0  0  0  0
 19 21  2  0  0  0  0
 19 37  1  0  0  0  0
 20 22  2  0  0  0  0
 21 22  1  0  0  0  0
 21 40  1  0  0  0  0
 22 41  1  0  0  0  0
M  END
