DB06755
 OpenBabel07062211533D

 96 97  0  0  0  0  0  0  0  0999 V2000
  -12.9037   -0.7215   -0.4818 C   0  0  0  0  0  0  0  0  0  0  0  0
   12.8957    0.3747    0.6132 C   0  0  0  0  0  0  0  0  0  0  0  0
  -14.2656    0.0159   -0.3635 C   0  0  0  0  0  0  0  0  0  0  0  0
   13.9616   -0.6624    1.0623 C   0  0  0  0  0  0  0  0  0  0  0  0
  -14.1362    1.5068   -0.6189 C   0  0  0  0  0  0  0  0  0  0  0  0
   14.2425   -1.6990   -0.0107 C   0  0  0  0  0  0  0  0  0  0  0  0
  -11.7729    0.0531    0.2353 C   0  0  0  0  0  0  0  0  0  0  0  0
   11.6954   -0.3082   -0.0837 C   0  0  0  0  0  0  0  0  0  0  0  0
  -13.1907    2.1295    0.3972 C   0  0  0  0  0  0  0  0  0  0  0  0
   12.9707   -2.4657   -0.3405 C   0  0  0  0  0  0  0  0  0  0  0  0
  -11.9252    1.3355    0.6515 C   0  0  0  0  0  0  0  0  0  0  0  0
   11.7334   -1.6032   -0.4869 C   0  0  0  0  0  0  0  0  0  0  0  0
  -12.5492   -0.8860   -1.9777 C   0  0  0  0  0  0  0  0  0  0  0  0
  -13.1253   -2.1270    0.1288 C   0  0  0  0  0  0  0  0  0  0  0  0
   13.5528    1.3821   -0.3585 C   0  0  0  0  0  0  0  0  0  0  0  0
   12.4716    1.1326    1.8950 C   0  0  0  0  0  0  0  0  0  0  0  0
  -10.5262   -0.6739    0.4110 C   0  0  0  0  0  0  0  0  0  0  0  0
   10.5320    0.5360   -0.3024 C   0  0  0  0  0  0  0  0  0  0  0  0
  -10.8965    2.1473    1.4044 C   0  0  0  0  0  0  0  0  0  0  0  0
   10.5930   -2.3630   -1.1245 C   0  0  0  0  0  0  0  0  0  0  0  0
   -9.3181   -0.1151    0.2338 C   0  0  0  0  0  0  0  0  0  0  0  0
    9.2712    0.0977   -0.1581 C   0  0  0  0  0  0  0  0  0  0  0  0
   -8.0248   -0.7799    0.3954 C   0  0  0  0  0  0  0  0  0  0  0  0
    8.0523    0.8800   -0.3648 C   0  0  0  0  0  0  0  0  0  0  0  0
   -8.0372   -2.2338    0.8088 C   0  0  0  0  0  0  0  0  0  0  0  0
    8.2064    2.3127   -0.8159 C   0  0  0  0  0  0  0  0  0  0  0  0
   -6.8322   -0.1749    0.2056 C   0  0  0  0  0  0  0  0  0  0  0  0
    6.8082    0.3803   -0.2032 C   0  0  0  0  0  0  0  0  0  0  0  0
   -5.5011   -0.7394    0.3385 C   0  0  0  0  0  0  0  0  0  0  0  0
    5.5332    1.0478   -0.3760 C   0  0  0  0  0  0  0  0  0  0  0  0
   -4.3868   -0.0202    0.1184 C   0  0  0  0  0  0  0  0  0  0  0  0
    4.3409    0.4575   -0.1891 C   0  0  0  0  0  0  0  0  0  0  0  0
   -3.0086   -0.4999    0.2236 C   0  0  0  0  0  0  0  0  0  0  0  0
    3.0201    1.0788   -0.3297 C   0  0  0  0  0  0  0  0  0  0  0  0
   -2.7921   -1.9318    0.6491 C   0  0  0  0  0  0  0  0  0  0  0  0
    2.9792    2.5272   -0.7469 C   0  0  0  0  0  0  0  0  0  0  0  0
   -1.9314    0.2794   -0.0122 C   0  0  0  0  0  0  0  0  0  0  0  0
    1.9309    0.3148   -0.0976 C   0  0  0  0  0  0  0  0  0  0  0  0
   -0.5283   -0.0751    0.0581 C   0  0  0  0  0  0  0  0  0  0  0  0
    0.5372    0.7089   -0.1790 C   0  0  0  0  0  0  0  0  0  0  0  0
  -14.9952   -0.4111   -1.0633 H   0  0  0  0  0  0  0  0  0  0  0  0
  -14.6847   -0.1298    0.6420 H   0  0  0  0  0  0  0  0  0  0  0  0
   14.8969   -0.1581    1.3358 H   0  0  0  0  0  0  0  0  0  0  0  0
   13.6199   -1.1837    1.9675 H   0  0  0  0  0  0  0  0  0  0  0  0
  -15.1192    1.9865   -0.5470 H   0  0  0  0  0  0  0  0  0  0  0  0
  -13.7723    1.6930   -1.6358 H   0  0  0  0  0  0  0  0  0  0  0  0
   15.0130   -2.3977    0.3352 H   0  0  0  0  0  0  0  0  0  0  0  0
   14.6385   -1.2194   -0.9133 H   0  0  0  0  0  0  0  0  0  0  0  0
  -12.9313    3.1366    0.0475 H   0  0  0  0  0  0  0  0  0  0  0  0
  -13.7175    2.2498    1.3528 H   0  0  0  0  0  0  0  0  0  0  0  0
   13.1532   -3.0253   -1.2661 H   0  0  0  0  0  0  0  0  0  0  0  0
   12.7786   -3.2063    0.4466 H   0  0  0  0  0  0  0  0  0  0  0  0
  -13.3659   -1.3686   -2.5268 H   0  0  0  0  0  0  0  0  0  0  0  0
  -11.6572   -1.5089   -2.1121 H   0  0  0  0  0  0  0  0  0  0  0  0
  -12.3472    0.0778   -2.4576 H   0  0  0  0  0  0  0  0  0  0  0  0
  -12.3003   -2.8123   -0.0935 H   0  0  0  0  0  0  0  0  0  0  0  0
  -14.0309   -2.5917   -0.2798 H   0  0  0  0  0  0  0  0  0  0  0  0
  -13.2425   -2.0749    1.2175 H   0  0  0  0  0  0  0  0  0  0  0  0
   12.8977    2.2342   -0.5702 H   0  0  0  0  0  0  0  0  0  0  0  0
   13.8047    0.9170   -1.3180 H   0  0  0  0  0  0  0  0  0  0  0  0
   14.4773    1.7917    0.0649 H   0  0  0  0  0  0  0  0  0  0  0  0
   13.3448    1.5395    2.4184 H   0  0  0  0  0  0  0  0  0  0  0  0
   11.9432    0.4701    2.5907 H   0  0  0  0  0  0  0  0  0  0  0  0
   11.8097    1.9768    1.6723 H   0  0  0  0  0  0  0  0  0  0  0  0
  -10.6076   -1.7029    0.7403 H   0  0  0  0  0  0  0  0  0  0  0  0
   10.7319    1.5526   -0.6234 H   0  0  0  0  0  0  0  0  0  0  0  0
  -11.3960    2.7976    2.1331 H   0  0  0  0  0  0  0  0  0  0  0  0
  -10.3357    2.7914    0.7199 H   0  0  0  0  0  0  0  0  0  0  0  0
  -10.2069    1.5404    1.9962 H   0  0  0  0  0  0  0  0  0  0  0  0
    9.9944   -2.8735   -0.3639 H   0  0  0  0  0  0  0  0  0  0  0  0
   10.9790   -3.1375   -1.7984 H   0  0  0  0  0  0  0  0  0  0  0  0
    9.9582   -1.7432   -1.7624 H   0  0  0  0  0  0  0  0  0  0  0  0
   -9.2384    0.9072   -0.1293 H   0  0  0  0  0  0  0  0  0  0  0  0
    9.0775   -0.9007    0.2243 H   0  0  0  0  0  0  0  0  0  0  0  0
   -7.0699   -2.7218    0.9172 H   0  0  0  0  0  0  0  0  0  0  0  0
   -8.5886   -2.8275    0.0697 H   0  0  0  0  0  0  0  0  0  0  0  0
   -8.5378   -2.3422    1.7785 H   0  0  0  0  0  0  0  0  0  0  0  0
    8.7461    2.8875   -0.0538 H   0  0  0  0  0  0  0  0  0  0  0  0
    7.2891    2.8634   -1.0189 H   0  0  0  0  0  0  0  0  0  0  0  0
    8.7842    2.3520   -1.7472 H   0  0  0  0  0  0  0  0  0  0  0  0
   -6.8486    0.8755   -0.0879 H   0  0  0  0  0  0  0  0  0  0  0  0
    6.7254   -0.6625    0.1063 H   0  0  0  0  0  0  0  0  0  0  0  0
   -5.4010   -1.7776    0.6209 H   0  0  0  0  0  0  0  0  0  0  0  0
    5.5429    2.0914   -0.6596 H   0  0  0  0  0  0  0  0  0  0  0  0
   -4.4873    1.0258   -0.1703 H   0  0  0  0  0  0  0  0  0  0  0  0
    4.3366   -0.5928    0.1033 H   0  0  0  0  0  0  0  0  0  0  0  0
   -3.2872   -2.1157    1.6105 H   0  0  0  0  0  0  0  0  0  0  0  0
   -3.2256   -2.6113   -0.0944 H   0  0  0  0  0  0  0  0  0  0  0  0
   -1.7615   -2.2533    0.7904 H   0  0  0  0  0  0  0  0  0  0  0  0
    3.4897    3.1538   -0.0067 H   0  0  0  0  0  0  0  0  0  0  0  0
    1.9701    2.9303   -0.8506 H   0  0  0  0  0  0  0  0  0  0  0  0
    3.4676    2.6611   -1.7189 H   0  0  0  0  0  0  0  0  0  0  0  0
   -2.1093    1.3150   -0.3035 H   0  0  0  0  0  0  0  0  0  0  0  0
    2.0751   -0.7270    0.1909 H   0  0  0  0  0  0  0  0  0  0  0  0
   -0.2885   -1.0985    0.3261 H   0  0  0  0  0  0  0  0  0  0  0  0
    0.3324    1.7392   -0.4545 H   0  0  0  0  0  0  0  0  0  0  0  0
  1  3  1  0  0  0  0
  1  7  1  0  0  0  0
  1 13  1  0  0  0  0
  1 14  1  0  0  0  0
  2  4  1  0  0  0  0
  2  8  1  0  0  0  0
  2 15  1  0  0  0  0
  2 16  1  0  0  0  0
  3  5  1  0  0  0  0
  3 41  1  0  0  0  0
  3 42  1  0  0  0  0
  4  6  1  0  0  0  0
  4 43  1  0  0  0  0
  4 44  1  0  0  0  0
  5  9  1  0  0  0  0
  5 45  1  0  0  0  0
  5 46  1  0  0  0  0
  6 10  1  0  0  0  0
  6 47  1  0  0  0  0
  6 48  1  0  0  0  0
  7 11  2  0  0  0  0
  7 17  1  0  0  0  0
  8 12  2  0  0  0  0
  8 18  1  0  0  0  0
  9 11  1  0  0  0  0
  9 49  1  0  0  0  0
  9 50  1  0  0  0  0
 10 12  1  0  0  0  0
 10 51  1  0  0  0  0
 10 52  1  0  0  0  0
 11 19  1  0  0  0  0
 12 20  1  0  0  0  0
 13 53  1  0  0  0  0
 13 54  1  0  0  0  0
 13 55  1  0  0  0  0
 14 56  1  0  0  0  0
 14 57  1  0  0  0  0
 14 58  1  0  0  0  0
 15 59  1  0  0  0  0
 15 60  1  0  0  0  0
 15 61  1  0  0  0  0
 16 62  1  0  0  0  0
 16 63  1  0  0  0  0
 16 64  1  0  0  0  0
 17 21  2  0  0  0  0
 17 65  1  0  0  0  0
 18 22  2  0  0  0  0
 18 66  1  0  0  0  0
 19 67  1  0  0  0  0
 19 68  1  0  0  0  0
 19 69  1  0  0  0  0
 20 70  1  0  0  0  0
 20 71  1  0  0  0  0
 20 72  1  0  0  0  0
 21 23  1  0  0  0  0
 21 73  1  0  0  0  0
 22 24  1  0  0  0  0
 22 74  1  0  0  0  0
 23 25  1  0  0  0  0
 23 27  2  0  0  0  0
 24 26  1  0  0  0  0
 24 28  2  0  0  0  0
 25 75  1  0  0  0  0
 25 76  1  0  0  0  0
 25 77  1  0  0  0  0
 26 78  1  0  0  0  0
 26 79  1  0  0  0  0
 26 80  1  0  0  0  0
 27 29  1  0  0  0  0
 27 81  1  0  0  0  0
 28 30  1  0  0  0  0
 28 82  1  0  0  0  0
 29 31  2  0  0  0  0
 29 83  1  0  0  0  0
 30 32  2  0  0  0  0
 30 84  1  0  0  0  0
 31 33  1  0  0  0  0
 31 85  1  0  0  0  0
 32 34  1  0  0  0  0
 32 86  1  0  0  0  0
 33 35  1  0  0  0  0
 33 37  2  0  0  0  0
 34 36  1  0  0  0  0
 34 38  2  0  0  0  0
 35 87  1  0  0  0  0
 35 88  1  0  0  0  0
 35 89  1  0  0  0  0
 36 90  1  0  0  0  0
 36 91  1  0  0  0  0
 36 92  1  0  0  0  0
 37 39  1  0  0  0  0
 37 93  1  0  0  0  0
 38 40  1  0  0  0  0
 38 94  1  0  0  0  0
 39 40  2  0  0  0  0
 39 95  1  0  0  0  0
 40 96  1  0  0  0  0
M  END
