DB06403
 OpenBabel07062211533D

 50 52  0  0  1  0  0  0  0  0999 V2000
   -2.1402    0.7072   -1.7455 O   0  0  0  0  0  0  0  0  0  0  0  0
    0.5831    0.4403    0.6992 O   0  0  0  0  0  0  0  0  0  0  0  0
    0.0586    2.7286   -1.9385 O   0  0  0  0  0  0  0  0  0  0  0  0
   -0.1036    3.1051    0.2918 O   0  0  0  0  0  0  0  0  0  0  0  0
    2.5723    1.0830   -0.2961 N   0  0  0  0  0  0  0  0  0  0  0  0
    2.5215   -0.5816    1.4456 N   0  0  0  0  0  0  0  0  0  0  0  0
   -1.5590    0.2421   -0.5083 C   0  0  0  0  0  0  0  0  0  0  0  0
   -0.1032    0.8062   -0.4887 C   0  0  1  0  0  0  0  0  0  0  0  0
   -2.3627    0.8076    0.6769 C   0  0  0  0  0  0  0  0  0  0  0  0
   -1.6796   -1.2903   -0.5992 C   0  0  0  0  0  0  0  0  0  0  0  0
   -2.0399    0.3846    1.9410 C   0  0  0  0  0  0  0  0  0  0  0  0
   -2.9270   -1.8345   -0.7687 C   0  0  0  0  0  0  0  0  0  0  0  0
   -3.3637    1.7071    0.4125 C   0  0  0  0  0  0  0  0  0  0  0  0
   -0.5341   -2.0385   -0.5061 C   0  0  0  0  0  0  0  0  0  0  0  0
   -0.0605    2.3228   -0.6500 C   0  0  0  0  0  0  0  0  0  0  0  0
   -1.4232    0.2040   -2.8542 C   0  0  0  0  0  0  0  0  0  0  0  0
   -2.7684    0.8969    3.0147 C   0  0  0  0  0  0  0  0  0  0  0  0
   -3.0363   -3.2226   -0.8507 C   0  0  0  0  0  0  0  0  0  0  0  0
   -4.0919    2.2194    1.4863 C   0  0  0  0  0  0  0  0  0  0  0  0
   -0.6432   -3.4267   -0.5883 C   0  0  0  0  0  0  0  0  0  0  0  0
   -3.7942    1.8144    2.7874 C   0  0  0  0  0  0  0  0  0  0  0  0
   -1.8945   -4.0188   -0.7607 C   0  0  0  0  0  0  0  0  0  0  0  0
    1.9453    0.3087    0.6126 C   0  0  0  0  0  0  0  0  0  0  0  0
    3.9113    0.9282   -0.3539 C   0  0  0  0  0  0  0  0  0  0  0  0
    3.8619   -0.6854    1.3342 C   0  0  0  0  0  0  0  0  0  0  0  0
    4.6168    0.0507    0.4439 C   0  0  0  0  0  0  0  0  0  0  0  0
    4.6403    1.7661   -1.3501 C   0  0  0  0  0  0  0  0  0  0  0  0
    4.5359   -1.6630    2.2378 C   0  0  0  0  0  0  0  0  0  0  0  0
    0.4707    0.3929   -1.3265 H   0  0  0  0  0  0  0  0  0  0  0  0
   -1.2642   -0.3459    2.1415 H   0  0  0  0  0  0  0  0  0  0  0  0
   -3.8237   -1.2277   -0.8434 H   0  0  0  0  0  0  0  0  0  0  0  0
   -3.6205    2.0501   -0.5833 H   0  0  0  0  0  0  0  0  0  0  0  0
    0.4654   -1.6495   -0.4079 H   0  0  0  0  0  0  0  0  0  0  0  0
   -1.3070   -0.8808   -2.9054 H   0  0  0  0  0  0  0  0  0  0  0  0
   -0.4688    0.6956   -3.0433 H   0  0  0  0  0  0  0  0  0  0  0  0
   -2.0299    0.4552   -3.7330 H   0  0  0  0  0  0  0  0  0  0  0  0
   -2.5407    0.5772    4.0275 H   0  0  0  0  0  0  0  0  0  0  0  0
   -4.0103   -3.6836   -0.9860 H   0  0  0  0  0  0  0  0  0  0  0  0
   -4.8900    2.9346    1.3098 H   0  0  0  0  0  0  0  0  0  0  0  0
    0.2462   -4.0471   -0.5262 H   0  0  0  0  0  0  0  0  0  0  0  0
   -4.3620    2.2125    3.6233 H   0  0  0  0  0  0  0  0  0  0  0  0
   -1.9793   -5.0995   -0.8268 H   0  0  0  0  0  0  0  0  0  0  0  0
    0.0957    3.7060   -2.0126 H   0  0  0  0  0  0  0  0  0  0  0  0
    5.6926   -0.0540    0.3752 H   0  0  0  0  0  0  0  0  0  0  0  0
    5.1613    1.1308   -2.0734 H   0  0  0  0  0  0  0  0  0  0  0  0
    3.9485    2.4102   -1.9031 H   0  0  0  0  0  0  0  0  0  0  0  0
    5.3699    2.4083   -0.8466 H   0  0  0  0  0  0  0  0  0  0  0  0
    5.2612   -1.1518    2.8788 H   0  0  0  0  0  0  0  0  0  0  0  0
    3.8095   -2.1662    2.8847 H   0  0  0  0  0  0  0  0  0  0  0  0
    5.0533   -2.4290    1.6517 H   0  0  0  0  0  0  0  0  0  0  0  0
  1  7  1  0  0  0  0
  1 16  1  0  0  0  0
  2  8  1  0  0  0  0
  2 23  1  0  0  0  0
  3 15  1  0  0  0  0
  3 43  1  0  0  0  0
  4 15  2  0  0  0  0
  5 23  2  0  0  0  0
  5 24  1  0  0  0  0
  6 23  1  0  0  0  0
  6 25  2  0  0  0  0
  7  8  1  0  0  0  0
  7  9  1  0  0  0  0
  7 10  1  0  0  0  0
  8 15  1  0  0  0  0
  8 29  1  6  0  0  0
  9 11  2  0  0  0  0
  9 13  1  0  0  0  0
 10 12  2  0  0  0  0
 10 14  1  0  0  0  0
 11 17  1  0  0  0  0
 11 30  1  0  0  0  0
 12 18  1  0  0  0  0
 12 31  1  0  0  0  0
 13 19  2  0  0  0  0
 13 32  1  0  0  0  0
 14 20  2  0  0  0  0
 14 33  1  0  0  0  0
 16 34  1  0  0  0  0
 16 35  1  0  0  0  0
 16 36  1  0  0  0  0
 17 21  2  0  0  0  0
 17 37  1  0  0  0  0
 18 22  2  0  0  0  0
 18 38  1  0  0  0  0
 19 21  1  0  0  0  0
 19 39  1  0  0  0  0
 20 22  1  0  0  0  0
 20 40  1  0  0  0  0
 21 41  1  0  0  0  0
 22 42  1  0  0  0  0
 24 26  2  0  0  0  0
 24 27  1  0  0  0  0
 25 26  1  0  0  0  0
 25 28  1  0  0  0  0
 26 44  1  0  0  0  0
 27 45  1  0  0  0  0
 27 46  1  0  0  0  0
 27 47  1  0  0  0  0
 28 48  1  0  0  0  0
 28 49  1  0  0  0  0
 28 50  1  0  0  0  0
M  END
