DB06753
 OpenBabel07062211533D

 14 13  0  0  0  0  0  0  0  0999 V2000
    3.3664   -0.0255   -1.3210 Cl  0  0  0  0  0  0  0  0  0  0  0  0
    2.6914   -1.4322    1.1325 Cl  0  0  0  0  0  0  0  0  0  0  0  0
    2.6849    1.4815    1.0700 Cl  0  0  0  0  0  0  0  0  0  0  0  0
   -1.6053    0.0037    0.5721 P   0  0  0  0  0  0  0  0  0  0  0  0
   -0.0059    0.0125    0.8230 O   0  0  0  0  0  0  0  0  0  0  0  0
   -1.8358   -1.2751   -0.3906 O   0  0  0  0  0  0  0  0  0  0  0  0
   -1.8221    1.2610   -0.4214 O   0  0  0  0  0  0  0  0  0  0  0  0
   -2.4423    0.0283    1.8176 O   0  0  0  0  0  0  0  0  0  0  0  0
    0.8548   -0.0095   -0.3026 C   0  0  0  0  0  0  0  0  0  0  0  0
    2.3205    0.0029    0.1317 C   0  0  0  0  0  0  0  0  0  0  0  0
    0.6393    0.8617   -0.9321 H   0  0  0  0  0  0  0  0  0  0  0  0
    0.6426   -0.9079   -0.8939 H   0  0  0  0  0  0  0  0  0  0  0  0
   -2.7523   -1.5300   -0.6296 H   0  0  0  0  0  0  0  0  0  0  0  0
   -2.7362    1.5285   -0.6557 H   0  0  0  0  0  0  0  0  0  0  0  0
  1 10  1  0  0  0  0
  2 10  1  0  0  0  0
  3 10  1  0  0  0  0
  4  5  1  0  0  0  0
  4  6  1  0  0  0  0
  4  7  1  0  0  0  0
  4  8  2  0  0  0  0
  5  9  1  0  0  0  0
  6 13  1  0  0  0  0
  7 14  1  0  0  0  0
  9 10  1  0  0  0  0
  9 11  1  0  0  0  0
  9 12  1  0  0  0  0
M  END
