DB06594
 OpenBabel07062211533D

 35 36  0  0  0  0  0  0  0  0999 V2000
   -2.1475    2.7310    0.2144 O   0  0  0  0  0  0  0  0  0  0  0  0
    2.8491    2.1453   -0.3537 O   0  0  0  0  0  0  0  0  0  0  0  0
    3.4626   -0.1009   -0.3899 N   0  0  0  0  0  0  0  0  0  0  0  0
    0.0399   -1.5809    0.3546 C   0  0  0  0  0  0  0  0  0  0  0  0
    1.3851   -0.9771    0.6149 C   0  0  0  0  0  0  0  0  0  0  0  0
   -1.1129   -0.7934    0.2013 C   0  0  0  0  0  0  0  0  0  0  0  0
   -2.3553   -1.4256   -0.0429 C   0  0  0  0  0  0  0  0  0  0  0  0
    2.1654   -0.6589   -0.6637 C   0  0  0  0  0  0  0  0  0  0  0  0
   -0.0312   -2.9715    0.2687 C   0  0  0  0  0  0  0  0  0  0  0  0
   -1.0595    0.6075    0.2845 C   0  0  0  0  0  0  0  0  0  0  0  0
   -2.4083   -2.8265   -0.1263 C   0  0  0  0  0  0  0  0  0  0  0  0
   -3.5080   -0.6381   -0.1962 C   0  0  0  0  0  0  0  0  0  0  0  0
   -1.2531   -3.5933    0.0287 C   0  0  0  0  0  0  0  0  0  0  0  0
   -2.2149    1.3742    0.1296 C   0  0  0  0  0  0  0  0  0  0  0  0
   -3.4366    0.7526   -0.1105 C   0  0  0  0  0  0  0  0  0  0  0  0
    3.6959    1.2610   -0.2574 C   0  0  0  0  0  0  0  0  0  0  0  0
    5.1360    1.5706    0.0524 C   0  0  0  0  0  0  0  0  0  0  0  0
   -3.3667    3.4532    0.0479 C   0  0  0  0  0  0  0  0  0  0  0  0
    1.9803   -1.6818    1.2145 H   0  0  0  0  0  0  0  0  0  0  0  0
    1.3206   -0.0990    1.2673 H   0  0  0  0  0  0  0  0  0  0  0  0
    2.3251   -1.5696   -1.2521 H   0  0  0  0  0  0  0  0  0  0  0  0
    1.6042    0.0434   -1.2906 H   0  0  0  0  0  0  0  0  0  0  0  0
    0.8587   -3.5850    0.3836 H   0  0  0  0  0  0  0  0  0  0  0  0
   -0.1308    1.1440    0.4553 H   0  0  0  0  0  0  0  0  0  0  0  0
   -3.3525   -3.3339   -0.3133 H   0  0  0  0  0  0  0  0  0  0  0  0
   -4.4733   -1.1037   -0.3844 H   0  0  0  0  0  0  0  0  0  0  0  0
   -1.3079   -4.6759   -0.0390 H   0  0  0  0  0  0  0  0  0  0  0  0
   -4.3717    1.2867   -0.2405 H   0  0  0  0  0  0  0  0  0  0  0  0
    4.2379   -0.7469   -0.2726 H   0  0  0  0  0  0  0  0  0  0  0  0
    5.3224    2.6382   -0.0932 H   0  0  0  0  0  0  0  0  0  0  0  0
    5.3493    1.3053    1.0913 H   0  0  0  0  0  0  0  0  0  0  0  0
    5.7982    1.0070   -0.6112 H   0  0  0  0  0  0  0  0  0  0  0  0
   -3.1278    4.5173    0.1462 H   0  0  0  0  0  0  0  0  0  0  0  0
   -4.0876    3.2135    0.8368 H   0  0  0  0  0  0  0  0  0  0  0  0
   -3.7851    3.3111   -0.9543 H   0  0  0  0  0  0  0  0  0  0  0  0
  1 14  1  0  0  0  0
  1 18  1  0  0  0  0
  2 16  2  0  0  0  0
  3  8  1  0  0  0  0
  3 16  1  0  0  0  0
  3 29  1  0  0  0  0
  4  5  1  0  0  0  0
  4  6  2  0  0  0  0
  4  9  1  0  0  0  0
  5  8  1  0  0  0  0
  5 19  1  0  0  0  0
  5 20  1  0  0  0  0
  6  7  1  0  0  0  0
  6 10  1  0  0  0  0
  7 11  2  0  0  0  0
  7 12  1  0  0  0  0
  8 21  1  0  0  0  0
  8 22  1  0  0  0  0
  9 13  2  0  0  0  0
  9 23  1  0  0  0  0
 10 14  2  0  0  0  0
 10 24  1  0  0  0  0
 11 13  1  0  0  0  0
 11 25  1  0  0  0  0
 12 15  2  0  0  0  0
 12 26  1  0  0  0  0
 13 27  1  0  0  0  0
 14 15  1  0  0  0  0
 15 28  1  0  0  0  0
 16 17  1  0  0  0  0
 17 30  1  0  0  0  0
 17 31  1  0  0  0  0
 17 32  1  0  0  0  0
 18 33  1  0  0  0  0
 18 34  1  0  0  0  0
 18 35  1  0  0  0  0
M  END
