DB06697
 OpenBabel07062211533D

 47 50  0  0  1  0  0  0  0  0999 V2000
   -0.6852    0.7381    1.8011 O   0  0  0  0  0  0  0  0  0  0  0  0
   -1.1815    1.7519   -0.8760 O   0  0  0  0  0  0  0  0  0  0  0  0
    1.0639    1.9050   -0.2798 O   0  0  0  0  0  0  0  0  0  0  0  0
   -1.0640    2.1056    1.4560 O   0  0  0  0  0  0  0  0  0  0  0  0
    2.8801    0.6546   -1.1273 O   0  0  0  0  0  0  0  0  0  0  0  0
   -0.2643    0.0204    0.6103 C   0  0  2  0  0  0  0  0  0  0  0  0
   -1.4222   -0.9967    0.3503 C   0  0  2  0  0  0  0  0  0  0  0  0
    1.0506   -0.7062    1.0082 C   0  0  1  0  0  0  0  0  0  0  0  0
   -1.0122   -2.1400   -0.6152 C   0  0  1  0  0  0  0  0  0  0  0  0
   -0.0038    0.9932   -0.5680 C   0  0  1  0  0  0  0  0  0  0  0  0
    1.4085   -1.8385    0.0330 C   0  0  0  0  0  0  0  0  0  0  0  0
    2.1887    0.3327    1.2050 C   0  0  2  0  0  0  0  0  0  0  0  0
   -2.7416   -0.3362   -0.1131 C   0  0  0  0  0  0  0  0  0  0  0  0
    0.2639   -2.8281   -0.1230 C   0  0  0  0  0  0  0  0  0  0  0  0
   -1.9206    2.0540    0.3113 C   0  0  2  0  0  0  0  0  0  0  0  0
   -3.0582    1.0334    0.4952 C   0  0  0  0  0  0  0  0  0  0  0  0
    2.3162    1.2928    0.0114 C   0  0  2  0  0  0  0  0  0  0  0  0
   -2.1110   -3.1963   -0.7856 C   0  0  0  0  0  0  0  0  0  0  0  0
    3.5319   -0.3047    1.5662 C   0  0  0  0  0  0  0  0  0  0  0  0
   -2.4926    3.4597    0.1439 C   0  0  0  0  0  0  0  0  0  0  0  0
    2.9933    1.5508   -2.2241 C   0  0  0  0  0  0  0  0  0  0  0  0
   -1.6536   -1.4584    1.3232 H   0  0  0  0  0  0  0  0  0  0  0  0
    0.8905   -1.1736    1.9920 H   0  0  0  0  0  0  0  0  0  0  0  0
   -0.8117   -1.7128   -1.6065 H   0  0  0  0  0  0  0  0  0  0  0  0
    0.2527    0.4464   -1.4809 H   0  0  0  0  0  0  0  0  0  0  0  0
    2.2834   -2.3892    0.3954 H   0  0  0  0  0  0  0  0  0  0  0  0
    1.6672   -1.4481   -0.9555 H   0  0  0  0  0  0  0  0  0  0  0  0
    1.8902    0.9467    2.0673 H   0  0  0  0  0  0  0  0  0  0  0  0
   -3.5801   -1.0061    0.1162 H   0  0  0  0  0  0  0  0  0  0  0  0
   -2.7341   -0.2339   -1.2066 H   0  0  0  0  0  0  0  0  0  0  0  0
    0.5651   -3.6092   -0.8319 H   0  0  0  0  0  0  0  0  0  0  0  0
    0.0777   -3.3276    0.8365 H   0  0  0  0  0  0  0  0  0  0  0  0
   -3.9653    1.3919   -0.0085 H   0  0  0  0  0  0  0  0  0  0  0  0
   -3.3123    0.9257    1.5567 H   0  0  0  0  0  0  0  0  0  0  0  0
    2.9969    2.1013    0.3067 H   0  0  0  0  0  0  0  0  0  0  0  0
   -2.4209   -3.6059    0.1818 H   0  0  0  0  0  0  0  0  0  0  0  0
   -2.9937   -2.7806   -1.2808 H   0  0  0  0  0  0  0  0  0  0  0  0
   -1.7584   -4.0271   -1.4065 H   0  0  0  0  0  0  0  0  0  0  0  0
    3.9621   -0.8702    0.7342 H   0  0  0  0  0  0  0  0  0  0  0  0
    4.2562    0.4683    1.8455 H   0  0  0  0  0  0  0  0  0  0  0  0
    3.4228   -0.9810    2.4204 H   0  0  0  0  0  0  0  0  0  0  0  0
   -1.6829    4.1898    0.0259 H   0  0  0  0  0  0  0  0  0  0  0  0
   -3.1232    3.5333   -0.7486 H   0  0  0  0  0  0  0  0  0  0  0  0
   -3.0737    3.7602    1.0223 H   0  0  0  0  0  0  0  0  0  0  0  0
    3.5249    1.0347   -3.0286 H   0  0  0  0  0  0  0  0  0  0  0  0
    3.5707    2.4379   -1.9455 H   0  0  0  0  0  0  0  0  0  0  0  0
    2.0099    1.8422   -2.6039 H   0  0  0  0  0  0  0  0  0  0  0  0
  1  4  1  0  0  0  0
  1  6  1  0  0  0  0
  2 10  1  0  0  0  0
  2 15  1  0  0  0  0
  3 10  1  0  0  0  0
  3 17  1  0  0  0  0
  4 15  1  0  0  0  0
  5 17  1  0  0  0  0
  5 21  1  0  0  0  0
  6  7  1  6  0  0  0
  7  9  1  6  0  0  0
  7 13  1  0  0  0  0
  7 22  1  0  0  0  0
  8  6  1  6  0  0  0
  8 11  1  0  0  0  0
  8 23  1  0  0  0  0
  9 14  1  0  0  0  0
  9 18  1  0  0  0  0
  9 24  1  6  0  0  0
 10  6  1  1  0  0  0
 10 25  1  0  0  0  0
 11 14  1  0  0  0  0
 11 26  1  0  0  0  0
 11 27  1  0  0  0  0
 12  8  1  6  0  0  0
 12 19  1  0  0  0  0
 12 28  1  0  0  0  0
 13 16  1  0  0  0  0
 13 29  1  0  0  0  0
 13 30  1  0  0  0  0
 14 31  1  0  0  0  0
 14 32  1  0  0  0  0
 15 16  1  0  0  0  0
 15 20  1  6  0  0  0
 16 33  1  0  0  0  0
 16 34  1  0  0  0  0
 17 12  1  1  0  0  0
 17 35  1  0  0  0  0
 18 36  1  0  0  0  0
 18 37  1  0  0  0  0
 18 38  1  0  0  0  0
 19 39  1  0  0  0  0
 19 40  1  0  0  0  0
 19 41  1  0  0  0  0
 20 42  1  0  0  0  0
 20 43  1  0  0  0  0
 20 44  1  0  0  0  0
 21 45  1  0  0  0  0
 21 46  1  0  0  0  0
 21 47  1  0  0  0  0
M  END
