DB06077
 OpenBabel07062211533D

 57 61  0  0  1  0  0  0  0  0999 V2000
  -10.0516    0.7428    1.7310 F   0  0  0  0  0  0  0  0  0  0  0  0
   -4.8215    0.7596   -1.7979 O   0  0  0  0  0  0  0  0  0  0  0  0
    3.5557   -0.8822   -0.2268 N   0  0  0  0  0  0  0  0  0  0  0  0
   -0.2260   -1.2376   -0.6638 N   0  0  0  0  0  0  0  0  0  0  0  0
    5.7412    0.5274    0.9624 N   0  0  0  0  0  0  0  0  0  0  0  0
    2.6365   -1.2098   -1.3237 C   0  0  2  0  0  0  0  0  0  0  0  0
    1.7317    0.0530   -1.5008 C   0  0  1  0  0  0  0  0  0  0  0  0
    1.8457   -2.4906   -1.0823 C   0  0  0  0  0  0  0  0  0  0  0  0
    0.4750    0.0502   -0.6159 C   0  0  0  0  0  0  0  0  0  0  0  0
    2.6822    1.1208   -1.0382 C   0  0  0  0  0  0  0  0  0  0  0  0
    3.7020    0.5176   -0.2972 C   0  0  0  0  0  0  0  0  0  0  0  0
    0.6484   -2.3023   -0.1549 C   0  0  0  0  0  0  0  0  0  0  0  0
    4.7823   -1.5926    0.0758 C   0  0  0  0  0  0  0  0  0  0  0  0
    4.7486    1.2272    0.2880 C   0  0  0  0  0  0  0  0  0  0  0  0
    5.4985   -0.8958    1.2440 C   0  0  0  0  0  0  0  0  0  0  0  0
   -1.4587   -1.1739    0.1227 C   0  0  0  0  0  0  0  0  0  0  0  0
    2.6539    2.4873   -1.2134 C   0  0  0  0  0  0  0  0  0  0  0  0
    4.7173    2.6154    0.0971 C   0  0  0  0  0  0  0  0  0  0  0  0
    3.6839    3.2353   -0.6385 C   0  0  0  0  0  0  0  0  0  0  0  0
   -2.5463   -0.4327   -0.6575 C   0  0  0  0  0  0  0  0  0  0  0  0
    6.7819    1.2199    1.7012 C   0  0  0  0  0  0  0  0  0  0  0  0
   -3.8589   -0.3361    0.1250 C   0  0  0  0  0  0  0  0  0  0  0  0
   -4.9821    0.3283   -0.6585 C   0  0  0  0  0  0  0  0  0  0  0  0
   -6.3273    0.4375   -0.0251 C   0  0  0  0  0  0  0  0  0  0  0  0
   -6.5356   -0.0637    1.2600 C   0  0  0  0  0  0  0  0  0  0  0  0
   -7.3770    1.0420   -0.7165 C   0  0  0  0  0  0  0  0  0  0  0  0
   -7.7938    0.0393    1.8532 C   0  0  0  0  0  0  0  0  0  0  0  0
   -8.6352    1.1449   -0.1234 C   0  0  0  0  0  0  0  0  0  0  0  0
   -8.8436    0.6437    1.1614 C   0  0  0  0  0  0  0  0  0  0  0  0
    3.2403   -1.3418   -2.2346 H   0  0  0  0  0  0  0  0  0  0  0  0
    1.4665    0.1690   -2.5581 H   0  0  0  0  0  0  0  0  0  0  0  0
    1.4732   -2.8502   -2.0512 H   0  0  0  0  0  0  0  0  0  0  0  0
    2.4926   -3.2825   -0.6884 H   0  0  0  0  0  0  0  0  0  0  0  0
    0.7323    0.2965    0.4249 H   0  0  0  0  0  0  0  0  0  0  0  0
   -0.1624    0.8689   -0.9681 H   0  0  0  0  0  0  0  0  0  0  0  0
    0.9863   -2.0884    0.8674 H   0  0  0  0  0  0  0  0  0  0  0  0
    0.1039   -3.2542   -0.1230 H   0  0  0  0  0  0  0  0  0  0  0  0
    4.5613   -2.6300    0.3475 H   0  0  0  0  0  0  0  0  0  0  0  0
    5.4348   -1.6111   -0.8067 H   0  0  0  0  0  0  0  0  0  0  0  0
    6.4476   -1.4106    1.4326 H   0  0  0  0  0  0  0  0  0  0  0  0
    4.8933   -0.9779    2.1561 H   0  0  0  0  0  0  0  0  0  0  0  0
   -1.2935   -0.7111    1.1042 H   0  0  0  0  0  0  0  0  0  0  0  0
   -1.8348   -2.1877    0.3130 H   0  0  0  0  0  0  0  0  0  0  0  0
    1.8632    2.9703   -1.7759 H   0  0  0  0  0  0  0  0  0  0  0  0
    5.4939    3.2539    0.5114 H   0  0  0  0  0  0  0  0  0  0  0  0
    3.6939    4.3157   -0.7609 H   0  0  0  0  0  0  0  0  0  0  0  0
   -2.2343    0.5856   -0.9130 H   0  0  0  0  0  0  0  0  0  0  0  0
   -2.7288   -0.9484   -1.6096 H   0  0  0  0  0  0  0  0  0  0  0  0
    7.3471    1.8938    1.0486 H   0  0  0  0  0  0  0  0  0  0  0  0
    6.3540    1.7952    2.5292 H   0  0  0  0  0  0  0  0  0  0  0  0
    7.5021    0.5124    2.1265 H   0  0  0  0  0  0  0  0  0  0  0  0
   -3.6829    0.2415    1.0396 H   0  0  0  0  0  0  0  0  0  0  0  0
   -4.1777   -1.3508    0.3898 H   0  0  0  0  0  0  0  0  0  0  0  0
   -5.7492   -0.5391    1.8369 H   0  0  0  0  0  0  0  0  0  0  0  0
   -7.2397    1.4406   -1.7181 H   0  0  0  0  0  0  0  0  0  0  0  0
   -7.9570   -0.3500    2.8539 H   0  0  0  0  0  0  0  0  0  0  0  0
   -9.4529    1.6155   -0.6612 H   0  0  0  0  0  0  0  0  0  0  0  0
  1 29  1  0  0  0  0
  2 23  2  0  0  0  0
  3  6  1  0  0  0  0
  3 11  1  0  0  0  0
  3 13  1  0  0  0  0
  4  9  1  0  0  0  0
  4 12  1  0  0  0  0
  4 16  1  0  0  0  0
  5 14  1  0  0  0  0
  5 15  1  0  0  0  0
  5 21  1  0  0  0  0
  6  7  1  6  0  0  0
  6  8  1  0  0  0  0
  6 30  1  0  0  0  0
  7  9  1  0  0  0  0
  7 10  1  0  0  0  0
  7 31  1  6  0  0  0
  8 12  1  0  0  0  0
  8 32  1  0  0  0  0
  8 33  1  0  0  0  0
  9 34  1  0  0  0  0
  9 35  1  0  0  0  0
 10 11  2  0  0  0  0
 10 17  1  0  0  0  0
 11 14  1  0  0  0  0
 12 36  1  0  0  0  0
 12 37  1  0  0  0  0
 13 15  1  0  0  0  0
 13 38  1  0  0  0  0
 13 39  1  0  0  0  0
 14 18  2  0  0  0  0
 15 40  1  0  0  0  0
 15 41  1  0  0  0  0
 16 20  1  0  0  0  0
 16 42  1  0  0  0  0
 16 43  1  0  0  0  0
 17 19  2  0  0  0  0
 17 44  1  0  0  0  0
 18 19  1  0  0  0  0
 18 45  1  0  0  0  0
 19 46  1  0  0  0  0
 20 22  1  0  0  0  0
 20 47  1  0  0  0  0
 20 48  1  0  0  0  0
 21 49  1  0  0  0  0
 21 50  1  0  0  0  0
 21 51  1  0  0  0  0
 22 23  1  0  0  0  0
 22 52  1  0  0  0  0
 22 53  1  0  0  0  0
 23 24  1  0  0  0  0
 24 25  2  0  0  0  0
 24 26  1  0  0  0  0
 25 27  1  0  0  0  0
 25 54  1  0  0  0  0
 26 28  2  0  0  0  0
 26 55  1  0  0  0  0
 27 29  2  0  0  0  0
 27 56  1  0  0  0  0
 28 29  1  0  0  0  0
 28 57  1  0  0  0  0
M  END
