DB06262
 OpenBabel07062211533D

 26 26  0  0  1  0  0  0  0  0999 V2000
   -1.3993   -0.1000   -1.9711 O   0  0  0  0  0  0  0  0  0  0  0  0
    2.9046   -2.3451    0.0083 O   0  0  0  0  0  0  0  0  0  0  0  0
   -1.9670    1.4920    2.0195 O   0  0  0  0  0  0  0  0  0  0  0  0
   -1.3772   -0.6134    2.6720 O   0  0  0  0  0  0  0  0  0  0  0  0
    4.4719   -0.0669    0.2908 O   0  0  0  0  0  0  0  0  0  0  0  0
   -3.3698   -0.1959   -0.0307 N   0  3  0  0  0  0  0  0  0  0  0  0
   -1.0672    0.4082   -0.6780 C   0  0  1  0  0  0  0  0  0  0  0  0
   -1.9360   -0.2675    0.4016 C   0  0  1  0  0  0  0  0  0  0  0  0
    0.4219    0.2767   -0.4183 C   0  0  0  0  0  0  0  0  0  0  0  0
    0.9786   -0.9847   -0.3242 C   0  0  0  0  0  0  0  0  0  0  0  0
    1.1832    1.4222   -0.2811 C   0  0  0  0  0  0  0  0  0  0  0  0
   -1.7405    0.2645    1.8358 C   0  0  0  0  0  0  0  0  0  0  0  0
    2.3473   -1.1054   -0.0844 C   0  0  0  0  0  0  0  0  0  0  0  0
    2.5519    1.3016   -0.0414 C   0  0  0  0  0  0  0  0  0  0  0  0
    3.1341    0.0378    0.0569 C   0  0  0  0  0  0  0  0  0  0  0  0
   -1.3180    1.4775   -0.7005 H   0  0  0  0  0  0  0  0  0  0  0  0
   -1.7384   -1.3466    0.4046 H   0  0  0  0  0  0  0  0  0  0  0  0
   -3.6874    0.7782   -0.1238 H   0  0  0  0  0  0  0  0  0  0  0  0
   -3.9865   -0.6574    0.6514 H   0  0  0  0  0  0  0  0  0  0  0  0
   -3.5174   -0.6617   -0.9358 H   0  0  0  0  0  0  0  0  0  0  0  0
    0.3692   -1.8759   -0.4448 H   0  0  0  0  0  0  0  0  0  0  0  0
    0.7419    2.4116   -0.3549 H   0  0  0  0  0  0  0  0  0  0  0  0
   -2.2157    0.3390   -2.2645 H   0  0  0  0  0  0  0  0  0  0  0  0
    3.1532    2.2004    0.0669 H   0  0  0  0  0  0  0  0  0  0  0  0
    2.2104   -3.0150   -0.1144 H   0  0  0  0  0  0  0  0  0  0  0  0
    4.8521    0.8256    0.3601 H   0  0  0  0  0  0  0  0  0  0  0  0
  1  7  1  0  0  0  0
  1 23  1  0  0  0  0
  2 13  1  0  0  0  0
  2 25  1  0  0  0  0
  3 12  2  0  0  0  0
  4 12  1  0  0  0  0
  5 15  1  0  0  0  0
  5 26  1  0  0  0  0
  6  8  1  0  0  0  0
  6 18  1  0  0  0  0
  6 19  1  0  0  0  0
  6 20  1  0  0  0  0
  7  8  1  0  0  0  0
  7  9  1  0  0  0  0
  7 16  1  1  0  0  0
  8 12  1  0  0  0  0
  8 17  1  1  0  0  0
  9 10  2  0  0  0  0
  9 11  1  0  0  0  0
 10 13  1  0  0  0  0
 10 21  1  0  0  0  0
 11 14  2  0  0  0  0
 11 22  1  0  0  0  0
 13 15  2  0  0  0  0
 14 15  1  0  0  0  0
 14 24  1  0  0  0  0
M  CHG  1   6   1
M  END
