DB06824
 OpenBabel07062211533D

 28 27  0  0  0  0  0  0  0  0999 V2000
   -1.8110   -0.3709   -0.1631 N   0  0  0  0  0  0  0  0  0  0  0  0
    1.8199    0.4154    0.0479 N   0  0  0  0  0  0  0  0  0  0  0  0
   -5.4506    0.3316   -0.0254 N   0  0  0  0  0  0  0  0  0  0  0  0
    5.4485   -0.3364   -0.0891 N   0  0  0  0  0  0  0  0  0  0  0  0
   -0.6274    0.4556    0.0283 C   0  0  0  0  0  0  0  0  0  0  0  0
    0.6238   -0.4017   -0.1137 C   0  0  0  0  0  0  0  0  0  0  0  0
   -3.0269    0.4165   -0.0022 C   0  0  0  0  0  0  0  0  0  0  0  0
    3.0240   -0.3855   -0.1238 C   0  0  0  0  0  0  0  0  0  0  0  0
   -4.2566   -0.4571   -0.2153 C   0  0  0  0  0  0  0  0  0  0  0  0
    4.2657    0.4783    0.0571 C   0  0  0  0  0  0  0  0  0  0  0  0
   -0.6098    1.2586   -0.7191 H   0  0  0  0  0  0  0  0  0  0  0  0
   -0.6427    0.9205    1.0223 H   0  0  0  0  0  0  0  0  0  0  0  0
    0.6120   -1.1953    0.6441 H   0  0  0  0  0  0  0  0  0  0  0  0
    0.6272   -0.8815   -1.1010 H   0  0  0  0  0  0  0  0  0  0  0  0
   -1.8085   -1.1402    0.5062 H   0  0  0  0  0  0  0  0  0  0  0  0
    1.8130    1.1764   -0.6307 H   0  0  0  0  0  0  0  0  0  0  0  0
   -3.0365    1.2401   -0.7274 H   0  0  0  0  0  0  0  0  0  0  0  0
   -3.0559    0.8559    1.0033 H   0  0  0  0  0  0  0  0  0  0  0  0
    3.0358   -0.8409   -1.1225 H   0  0  0  0  0  0  0  0  0  0  0  0
    3.0342   -1.1980    0.6140 H   0  0  0  0  0  0  0  0  0  0  0  0
   -4.2583   -1.2969    0.4893 H   0  0  0  0  0  0  0  0  0  0  0  0
   -4.2543   -0.8754   -1.2281 H   0  0  0  0  0  0  0  0  0  0  0  0
    4.2645    0.9479    1.0476 H   0  0  0  0  0  0  0  0  0  0  0  0
    4.2841    1.2803   -0.6893 H   0  0  0  0  0  0  0  0  0  0  0  0
   -5.4805    0.6989    0.9247 H   0  0  0  0  0  0  0  0  0  0  0  0
   -6.2734   -0.2607   -0.1277 H   0  0  0  0  0  0  0  0  0  0  0  0
    5.4607   -1.0670    0.6213 H   0  0  0  0  0  0  0  0  0  0  0  0
    6.2789    0.2317    0.0723 H   0  0  0  0  0  0  0  0  0  0  0  0
  1  5  1  0  0  0  0
  1  7  1  0  0  0  0
  1 15  1  0  0  0  0
  2  6  1  0  0  0  0
  2  8  1  0  0  0  0
  2 16  1  0  0  0  0
  3  9  1  0  0  0  0
  3 25  1  0  0  0  0
  3 26  1  0  0  0  0
  4 10  1  0  0  0  0
  4 27  1  0  0  0  0
  4 28  1  0  0  0  0
  5  6  1  0  0  0  0
  5 11  1  0  0  0  0
  5 12  1  0  0  0  0
  6 13  1  0  0  0  0
  6 14  1  0  0  0  0
  7  9  1  0  0  0  0
  7 17  1  0  0  0  0
  7 18  1  0  0  0  0
  8 10  1  0  0  0  0
  8 19  1  0  0  0  0
  8 20  1  0  0  0  0
  9 21  1  0  0  0  0
  9 22  1  0  0  0  0
 10 23  1  0  0  0  0
 10 24  1  0  0  0  0
M  END
