DB06802
 OpenBabel07062211533D

 33 34  0  0  0  0  0  0  0  0999 V2000
   -1.7747    1.6072    2.1004 O   0  0  0  0  0  0  0  0  0  0  0  0
    2.7135   -1.4913   -1.4963 O   0  0  0  0  0  0  0  0  0  0  0  0
    0.7034   -0.6444    1.5877 N   0  0  0  0  0  0  0  0  0  0  0  0
    4.4963   -2.1518   -0.2047 N   0  0  0  0  0  0  0  0  0  0  0  0
    2.1252    0.7184    0.1612 C   0  0  0  0  0  0  0  0  0  0  0  0
    0.8755    0.4647    0.7264 C   0  0  0  0  0  0  0  0  0  0  0  0
   -0.1687    1.3089    0.4264 C   0  0  0  0  0  0  0  0  0  0  0  0
    3.2981   -0.1622    0.4478 C   0  0  0  0  0  0  0  0  0  0  0  0
    2.2975    1.8106   -0.6892 C   0  0  0  0  0  0  0  0  0  0  0  0
   -0.0300    2.3949   -0.4098 C   0  0  0  0  0  0  0  0  0  0  0  0
   -1.5215    1.0672    1.0132 C   0  0  0  0  0  0  0  0  0  0  0  0
    1.2200    2.6489   -0.9747 C   0  0  0  0  0  0  0  0  0  0  0  0
   -2.5190    0.2374    0.3568 C   0  0  0  0  0  0  0  0  0  0  0  0
    3.4454   -1.3187   -0.5256 C   0  0  0  0  0  0  0  0  0  0  0  0
   -2.2281   -0.3677   -0.8660 C   0  0  0  0  0  0  0  0  0  0  0  0
   -3.7668    0.0460    0.9502 C   0  0  0  0  0  0  0  0  0  0  0  0
   -3.1850   -1.1639   -1.4951 C   0  0  0  0  0  0  0  0  0  0  0  0
   -4.7236   -0.7506    0.3210 C   0  0  0  0  0  0  0  0  0  0  0  0
   -4.4327   -1.3555   -0.9017 C   0  0  0  0  0  0  0  0  0  0  0  0
    4.2197    0.4333    0.3815 H   0  0  0  0  0  0  0  0  0  0  0  0
    3.2893   -0.5396    1.4763 H   0  0  0  0  0  0  0  0  0  0  0  0
    3.2644    2.0199   -1.1393 H   0  0  0  0  0  0  0  0  0  0  0  0
   -0.8652    3.0512   -0.6358 H   0  0  0  0  0  0  0  0  0  0  0  0
    1.3536    3.4988   -1.6375 H   0  0  0  0  0  0  0  0  0  0  0  0
   -0.2011   -0.8263    2.0016 H   0  0  0  0  0  0  0  0  0  0  0  0
    1.4333   -1.3306    1.7131 H   0  0  0  0  0  0  0  0  0  0  0  0
   -1.2702   -0.2463   -1.3626 H   0  0  0  0  0  0  0  0  0  0  0  0
   -4.0186    0.5057    1.9022 H   0  0  0  0  0  0  0  0  0  0  0  0
   -2.9589   -1.6354   -2.4471 H   0  0  0  0  0  0  0  0  0  0  0  0
   -5.6951   -0.8999    0.7829 H   0  0  0  0  0  0  0  0  0  0  0  0
   -5.1776   -1.9757   -1.3916 H   0  0  0  0  0  0  0  0  0  0  0  0
    5.0915   -1.9886    0.6010 H   0  0  0  0  0  0  0  0  0  0  0  0
    4.7099   -2.9647   -0.7728 H   0  0  0  0  0  0  0  0  0  0  0  0
  1 11  2  0  0  0  0
  2 14  2  0  0  0  0
  3  6  1  0  0  0  0
  3 25  1  0  0  0  0
  3 26  1  0  0  0  0
  4 14  1  0  0  0  0
  4 32  1  0  0  0  0
  4 33  1  0  0  0  0
  5  6  2  0  0  0  0
  5  8  1  0  0  0  0
  5  9  1  0  0  0  0
  6  7  1  0  0  0  0
  7 10  2  0  0  0  0
  7 11  1  0  0  0  0
  8 14  1  0  0  0  0
  8 20  1  0  0  0  0
  8 21  1  0  0  0  0
  9 12  2  0  0  0  0
  9 22  1  0  0  0  0
 10 12  1  0  0  0  0
 10 23  1  0  0  0  0
 11 13  1  0  0  0  0
 12 24  1  0  0  0  0
 13 15  2  0  0  0  0
 13 16  1  0  0  0  0
 15 17  1  0  0  0  0
 15 27  1  0  0  0  0
 16 18  2  0  0  0  0
 16 28  1  0  0  0  0
 17 19  2  0  0  0  0
 17 29  1  0  0  0  0
 18 19  1  0  0  0  0
 18 30  1  0  0  0  0
 19 31  1  0  0  0  0
M  END
