DB06713
 OpenBabel07062211533D

 53 56  0  0  1  0  0  0  0  0999 V2000
    4.5173   -0.9277    0.4696 O   0  0  0  0  0  0  0  0  0  0  0  0
   -6.2079   -1.2458    1.4349 O   0  0  0  0  0  0  0  0  0  0  0  0
   -5.8721    0.0601    1.0766 N   0  0  0  0  0  0  0  0  0  0  0  0
    2.1396   -0.3766    0.0151 C   0  0  1  0  0  0  0  0  0  0  0  0
    1.3435    0.9142    0.3162 C   0  0  2  0  0  0  0  0  0  0  0  0
    0.0425    1.0110   -0.4851 C   0  0  1  0  0  0  0  0  0  0  0  0
   -0.8608   -0.2202   -0.1318 C   0  0  2  0  0  0  0  0  0  0  0  0
    3.4185   -0.1234    0.8731 C   0  0  2  0  0  0  0  0  0  0  0  0
    1.2634   -1.5825    0.4041 C   0  0  0  0  0  0  0  0  0  0  0  0
    2.3840    2.0209    0.1625 C   0  0  0  0  0  0  0  0  0  0  0  0
   -0.1045   -1.5577   -0.3042 C   0  0  0  0  0  0  0  0  0  0  0  0
   -2.1724   -0.1402   -0.9596 C   0  0  2  0  0  0  0  0  0  0  0  0
    3.7086    1.3834    0.6328 C   0  0  0  0  0  0  0  0  0  0  0  0
   -0.6980    2.3383   -0.2278 C   0  0  0  0  0  0  0  0  0  0  0  0
    2.5338   -0.5271   -1.4836 C   0  0  0  0  0  0  0  0  0  0  0  0
   -2.0437    2.3932   -0.9566 C   0  0  0  0  0  0  0  0  0  0  0  0
   -2.8516    1.1725   -0.6064 C   0  0  0  0  0  0  0  0  0  0  0  0
   -3.1389   -1.3272   -0.8167 C   0  0  0  0  0  0  0  0  0  0  0  0
    3.2747   -1.8196   -1.7019 C   0  0  0  0  0  0  0  0  0  0  0  0
    3.2104   -0.3629    2.3155 C   0  0  0  0  0  0  0  0  0  0  0  0
   -3.9443   -1.2669    0.4689 C   0  0  0  0  0  0  0  0  0  0  0  0
   -4.0245    1.2681    0.0384 C   0  0  0  0  0  0  0  0  0  0  0  0
   -4.6959    0.0426    0.5385 C   0  0  0  0  0  0  0  0  0  0  0  0
    3.0417   -0.5575    3.4879 C   0  0  0  0  0  0  0  0  0  0  0  0
    1.0494    0.9136    1.3778 H   0  0  0  0  0  0  0  0  0  0  0  0
    0.2690    0.9852   -1.5580 H   0  0  0  0  0  0  0  0  0  0  0  0
   -1.1215   -0.1449    0.9351 H   0  0  0  0  0  0  0  0  0  0  0  0
    1.0493   -1.5525    1.4802 H   0  0  0  0  0  0  0  0  0  0  0  0
    1.7388   -2.5529    0.2451 H   0  0  0  0  0  0  0  0  0  0  0  0
    2.1329    2.8992    0.7663 H   0  0  0  0  0  0  0  0  0  0  0  0
    2.4701    2.3511   -0.8788 H   0  0  0  0  0  0  0  0  0  0  0  0
    0.0173   -1.7847   -1.3691 H   0  0  0  0  0  0  0  0  0  0  0  0
   -0.7021   -2.3739    0.1182 H   0  0  0  0  0  0  0  0  0  0  0  0
   -1.8951   -0.1054   -2.0233 H   0  0  0  0  0  0  0  0  0  0  0  0
    4.4779    1.5220   -0.1368 H   0  0  0  0  0  0  0  0  0  0  0  0
    4.0775    1.8863    1.5349 H   0  0  0  0  0  0  0  0  0  0  0  0
   -0.0831    3.1832   -0.5589 H   0  0  0  0  0  0  0  0  0  0  0  0
   -0.8614    2.4675    0.8504 H   0  0  0  0  0  0  0  0  0  0  0  0
    3.1616    0.3057   -1.8192 H   0  0  0  0  0  0  0  0  0  0  0  0
    1.6594   -0.5116   -2.1406 H   0  0  0  0  0  0  0  0  0  0  0  0
   -1.8853    2.4270   -2.0412 H   0  0  0  0  0  0  0  0  0  0  0  0
   -2.5662    3.3172   -0.6830 H   0  0  0  0  0  0  0  0  0  0  0  0
   -2.6176   -2.2854   -0.8970 H   0  0  0  0  0  0  0  0  0  0  0  0
   -3.8395   -1.3012   -1.6641 H   0  0  0  0  0  0  0  0  0  0  0  0
    4.2723   -1.6135   -2.1082 H   0  0  0  0  0  0  0  0  0  0  0  0
    3.4085   -2.4850   -0.8486 H   0  0  0  0  0  0  0  0  0  0  0  0
    2.7594   -2.4085   -2.4707 H   0  0  0  0  0  0  0  0  0  0  0  0
    5.3186   -0.5840    0.9007 H   0  0  0  0  0  0  0  0  0  0  0  0
   -3.2930   -1.3392    1.3475 H   0  0  0  0  0  0  0  0  0  0  0  0
   -4.5809   -2.1550    0.4557 H   0  0  0  0  0  0  0  0  0  0  0  0
   -4.4798    2.2228    0.2761 H   0  0  0  0  0  0  0  0  0  0  0  0
    2.8911   -0.7302    4.5277 H   0  0  0  0  0  0  0  0  0  0  0  0
   -7.0912   -1.1219    1.8215 H   0  0  0  0  0  0  0  0  0  0  0  0
  1  8  1  0  0  0  0
  1 48  1  0  0  0  0
  2  3  1  0  0  0  0
  2 53  1  0  0  0  0
  3 23  2  0  0  0  0
  4  5  1  1  0  0  0
  4  9  1  0  0  0  0
  4 15  1  0  0  0  0
  5  6  1  6  0  0  0
  5 10  1  0  0  0  0
  5 25  1  0  0  0  0
  6  7  1  1  0  0  0
  6 14  1  0  0  0  0
  6 26  1  0  0  0  0
  7 11  1  0  0  0  0
  7 12  1  6  0  0  0
  7 27  1  0  0  0  0
  8  4  1  6  0  0  0
  8 13  1  0  0  0  0
  8 20  1  0  0  0  0
  9 11  1  0  0  0  0
  9 28  1  0  0  0  0
  9 29  1  0  0  0  0
 10 13  1  0  0  0  0
 10 30  1  0  0  0  0
 10 31  1  0  0  0  0
 11 32  1  0  0  0  0
 11 33  1  0  0  0  0
 12 17  1  0  0  0  0
 12 18  1  0  0  0  0
 12 34  1  6  0  0  0
 13 35  1  0  0  0  0
 13 36  1  0  0  0  0
 14 16  1  0  0  0  0
 14 37  1  0  0  0  0
 14 38  1  0  0  0  0
 15 19  1  0  0  0  0
 15 39  1  0  0  0  0
 15 40  1  0  0  0  0
 16 17  1  0  0  0  0
 16 41  1  0  0  0  0
 16 42  1  0  0  0  0
 17 22  2  0  0  0  0
 18 21  1  0  0  0  0
 18 43  1  0  0  0  0
 18 44  1  0  0  0  0
 19 45  1  0  0  0  0
 19 46  1  0  0  0  0
 19 47  1  0  0  0  0
 20 24  3  0  0  0  0
 21 23  1  0  0  0  0
 21 49  1  0  0  0  0
 21 50  1  0  0  0  0
 22 23  1  0  0  0  0
 22 51  1  0  0  0  0
 24 52  1  0  0  0  0
M  END
