DB06155
 OpenBabel07062211533D

 51 54  0  0  0  0  0  0  0  0999 V2000
    2.1345    1.5391   -2.7410 Cl  0  0  0  0  0  0  0  0  0  0  0  0
    7.7621   -2.1462   -0.0167 Cl  0  0  0  0  0  0  0  0  0  0  0  0
    4.5535    5.4419    0.0585 Cl  0  0  0  0  0  0  0  0  0  0  0  0
   -1.9997   -2.3327    0.0387 O   0  0  0  0  0  0  0  0  0  0  0  0
   -3.8726   -0.3364    0.0297 N   0  0  0  0  0  0  0  0  0  0  0  0
   -2.5134   -0.0831    0.0443 N   0  0  0  0  0  0  0  0  0  0  0  0
    1.4530    0.4270    0.0092 N   0  0  0  0  0  0  0  0  0  0  0  0
    0.1101    0.4806    0.0191 N   0  0  0  0  0  0  0  0  0  0  0  0
   -6.6881    0.4261   -0.0306 C   0  0  0  0  0  0  0  0  0  0  0  0
   -5.9674   -0.1155   -1.2607 C   0  0  0  0  0  0  0  0  0  0  0  0
   -6.0053   -0.0558    1.2450 C   0  0  0  0  0  0  0  0  0  0  0  0
   -4.4690    0.1861   -1.2052 C   0  0  0  0  0  0  0  0  0  0  0  0
   -4.5054    0.2434    1.2201 C   0  0  0  0  0  0  0  0  0  0  0  0
   -1.6374   -1.1562    0.0479 C   0  0  0  0  0  0  0  0  0  0  0  0
   -0.2109   -0.7985    0.0344 C   0  0  0  0  0  0  0  0  0  0  0  0
    0.8628   -1.6760    0.0347 C   0  0  0  0  0  0  0  0  0  0  0  0
    1.9539   -0.8418    0.0176 C   0  0  0  0  0  0  0  0  0  0  0  0
    3.3652   -1.1580    0.0092 C   0  0  0  0  0  0  0  0  0  0  0  0
    0.8518   -3.1506    0.0494 C   0  0  0  0  0  0  0  0  0  0  0  0
    2.1871    1.6144   -0.0089 C   0  0  0  0  0  0  0  0  0  0  0  0
    4.0320   -1.3217   -1.2026 C   0  0  0  0  0  0  0  0  0  0  0  0
    4.0516   -1.2984    1.2131 C   0  0  0  0  0  0  0  0  0  0  0  0
    2.5556    2.2151   -1.2064 C   0  0  0  0  0  0  0  0  0  0  0  0
    2.5411    2.1824    1.2094 C   0  0  0  0  0  0  0  0  0  0  0  0
    5.3930   -1.6274   -1.2106 C   0  0  0  0  0  0  0  0  0  0  0  0
    5.4126   -1.6040    1.2051 C   0  0  0  0  0  0  0  0  0  0  0  0
    3.2892    3.4013   -1.1859 C   0  0  0  0  0  0  0  0  0  0  0  0
    3.2746    3.3686    1.2298 C   0  0  0  0  0  0  0  0  0  0  0  0
    6.0833   -1.7686   -0.0068 C   0  0  0  0  0  0  0  0  0  0  0  0
    3.6488    3.9780    0.0322 C   0  0  0  0  0  0  0  0  0  0  0  0
   -7.7367    0.1093   -0.0388 H   0  0  0  0  0  0  0  0  0  0  0  0
   -6.6821    1.5227   -0.0566 H   0  0  0  0  0  0  0  0  0  0  0  0
   -6.1217   -1.2000   -1.3261 H   0  0  0  0  0  0  0  0  0  0  0  0
   -6.4005    0.3241   -2.1662 H   0  0  0  0  0  0  0  0  0  0  0  0
   -6.4647    0.4263    2.1152 H   0  0  0  0  0  0  0  0  0  0  0  0
   -6.1624   -1.1360    1.3576 H   0  0  0  0  0  0  0  0  0  0  0  0
   -3.9909   -0.2812   -2.0752 H   0  0  0  0  0  0  0  0  0  0  0  0
   -4.3079    1.2693   -1.2907 H   0  0  0  0  0  0  0  0  0  0  0  0
   -4.3460    1.3295    1.2595 H   0  0  0  0  0  0  0  0  0  0  0  0
   -4.0539   -0.1823    2.1251 H   0  0  0  0  0  0  0  0  0  0  0  0
   -2.1945    0.8816    0.0422 H   0  0  0  0  0  0  0  0  0  0  0  0
    1.8617   -3.5720    0.0562 H   0  0  0  0  0  0  0  0  0  0  0  0
    0.3358   -3.5236    0.9400 H   0  0  0  0  0  0  0  0  0  0  0  0
    0.3403   -3.5409   -0.8367 H   0  0  0  0  0  0  0  0  0  0  0  0
    3.5080   -1.2252   -2.1499 H   0  0  0  0  0  0  0  0  0  0  0  0
    3.5426   -1.1733    2.1657 H   0  0  0  0  0  0  0  0  0  0  0  0
    2.2566    1.7191    2.1509 H   0  0  0  0  0  0  0  0  0  0  0  0
    5.9022   -1.7548   -2.1625 H   0  0  0  0  0  0  0  0  0  0  0  0
    5.9376   -1.7109    2.1509 H   0  0  0  0  0  0  0  0  0  0  0  0
    3.5822    3.8785   -2.1187 H   0  0  0  0  0  0  0  0  0  0  0  0
    3.5478    3.8065    2.1863 H   0  0  0  0  0  0  0  0  0  0  0  0
  1 23  1  0  0  0  0
  2 29  1  0  0  0  0
  3 30  1  0  0  0  0
  4 14  2  0  0  0  0
  5  6  1  0  0  0  0
  5 12  1  0  0  0  0
  5 13  1  0  0  0  0
  6 14  1  0  0  0  0
  6 41  1  0  0  0  0
  7  8  1  0  0  0  0
  7 17  2  0  0  0  0
  7 20  1  0  0  0  0
  8 15  1  0  0  0  0
  9 10  1  0  0  0  0
  9 11  1  0  0  0  0
  9 31  1  0  0  0  0
  9 32  1  0  0  0  0
 10 12  1  0  0  0  0
 10 33  1  0  0  0  0
 10 34  1  0  0  0  0
 11 13  1  0  0  0  0
 11 35  1  0  0  0  0
 11 36  1  0  0  0  0
 12 37  1  0  0  0  0
 12 38  1  0  0  0  0
 13 39  1  0  0  0  0
 13 40  1  0  0  0  0
 14 15  1  0  0  0  0
 15 16  2  0  0  0  0
 16 17  1  0  0  0  0
 16 19  1  0  0  0  0
 17 18  1  0  0  0  0
 18 21  2  0  0  0  0
 18 22  1  0  0  0  0
 19 42  1  0  0  0  0
 19 43  1  0  0  0  0
 19 44  1  0  0  0  0
 20 23  2  0  0  0  0
 20 24  1  0  0  0  0
 21 25  1  0  0  0  0
 21 45  1  0  0  0  0
 22 26  2  0  0  0  0
 22 46  1  0  0  0  0
 23 27  1  0  0  0  0
 24 28  2  0  0  0  0
 24 47  1  0  0  0  0
 25 29  2  0  0  0  0
 25 48  1  0  0  0  0
 26 29  1  0  0  0  0
 26 49  1  0  0  0  0
 27 30  2  0  0  0  0
 27 50  1  0  0  0  0
 28 30  1  0  0  0  0
 28 51  1  0  0  0  0
M  END
