DB06707
 OpenBabel07062211533D

 26 26  0  0  1  0  0  0  0  0999 V2000
   -1.5149   -0.4620   -1.8219 O   0  0  0  0  0  0  0  0  0  0  0  0
    3.4488    1.7755    0.4404 O   0  0  0  0  0  0  0  0  0  0  0  0
    4.2927   -0.8699    0.3282 O   0  0  0  0  0  0  0  0  0  0  0  0
   -3.3713    0.7477    0.0430 N   0  0  0  0  0  0  0  0  0  0  0  0
   -1.0786    0.4404   -0.8017 C   0  0  1  0  0  0  0  0  0  0  0  0
   -2.0127    0.3429    0.4256 C   0  0  2  0  0  0  0  0  0  0  0  0
    0.3630    0.0921   -0.4979 C   0  0  0  0  0  0  0  0  0  0  0  0
   -2.0858   -1.0740    0.9978 C   0  0  0  0  0  0  0  0  0  0  0  0
    1.2463    1.1045   -0.1667 C   0  0  0  0  0  0  0  0  0  0  0  0
    0.7650   -1.2305   -0.5589 C   0  0  0  0  0  0  0  0  0  0  0  0
    2.5747    0.7836    0.1126 C   0  0  0  0  0  0  0  0  0  0  0  0
    2.0934   -1.5513   -0.2797 C   0  0  0  0  0  0  0  0  0  0  0  0
    2.9982   -0.5443    0.0563 C   0  0  0  0  0  0  0  0  0  0  0  0
   -1.1210    1.4480   -1.2349 H   0  0  0  0  0  0  0  0  0  0  0  0
   -1.6574    1.0218    1.2102 H   0  0  0  0  0  0  0  0  0  0  0  0
   -1.1314   -1.3796    1.4368 H   0  0  0  0  0  0  0  0  0  0  0  0
   -2.8240   -1.1253    1.8074 H   0  0  0  0  0  0  0  0  0  0  0  0
   -2.3765   -1.8134    0.2436 H   0  0  0  0  0  0  0  0  0  0  0  0
    0.9109    2.1371   -0.1215 H   0  0  0  0  0  0  0  0  0  0  0  0
    0.0819   -2.0355   -0.8122 H   0  0  0  0  0  0  0  0  0  0  0  0
   -3.3569    1.7075   -0.2995 H   0  0  0  0  0  0  0  0  0  0  0  0
   -3.9738    0.7459    0.8651 H   0  0  0  0  0  0  0  0  0  0  0  0
    2.4170   -2.5877   -0.3239 H   0  0  0  0  0  0  0  0  0  0  0  0
   -2.4432   -0.2488   -2.0188 H   0  0  0  0  0  0  0  0  0  0  0  0
    2.9800    2.6277    0.4296 H   0  0  0  0  0  0  0  0  0  0  0  0
    4.7756   -0.0524    0.5409 H   0  0  0  0  0  0  0  0  0  0  0  0
  1  5  1  0  0  0  0
  1 24  1  0  0  0  0
  2 11  1  0  0  0  0
  2 25  1  0  0  0  0
  3 13  1  0  0  0  0
  3 26  1  0  0  0  0
  4  6  1  0  0  0  0
  4 21  1  0  0  0  0
  4 22  1  0  0  0  0
  5  6  1  0  0  0  0
  5  7  1  0  0  0  0
  5 14  1  6  0  0  0
  6  8  1  0  0  0  0
  6 15  1  1  0  0  0
  7  9  2  0  0  0  0
  7 10  1  0  0  0  0
  8 16  1  0  0  0  0
  8 17  1  0  0  0  0
  8 18  1  0  0  0  0
  9 11  1  0  0  0  0
  9 19  1  0  0  0  0
 10 12  2  0  0  0  0
 10 20  1  0  0  0  0
 11 13  2  0  0  0  0
 12 13  1  0  0  0  0
 12 23  1  0  0  0  0
M  END
