DB06590
 OpenBabel07062211533D

 64 68  0  0  1  0  0  0  0  0999 V2000
    0.9552   -2.0190    2.1003 S   0  0  0  0  0  0  0  0  0  0  0  0
   -2.5335   -4.5704    1.2861 S   0  0  0  0  0  0  0  0  0  0  0  0
   -5.0253   -3.1426    0.2637 S   0  0  0  0  0  0  0  0  0  0  0  0
    0.6611    4.0712   -1.6323 S   0  0  0  0  0  0  0  0  0  0  0  0
   -1.5418    0.8829   -3.3985 P   0  0  0  0  0  0  0  0  0  0  0  0
    1.7178   -2.8741   -2.4058 O   0  0  0  0  0  0  0  0  0  0  0  0
   -1.6493   -3.3911   -2.0029 O   0  0  0  0  0  0  0  0  0  0  0  0
   -0.8393   -5.5013   -1.6503 O   0  0  0  0  0  0  0  0  0  0  0  0
    3.8377   -0.4775   -2.1367 O   0  0  0  0  0  0  0  0  0  0  0  0
    5.2570    1.0826    0.1446 O   0  0  0  0  0  0  0  0  0  0  0  0
   -1.8051   -0.0361   -2.0798 O   0  0  0  0  0  0  0  0  0  0  0  0
   -3.0785    1.1029   -3.8896 O   0  0  0  0  0  0  0  0  0  0  0  0
   -0.7455    0.1144   -4.4236 O   0  0  0  0  0  0  0  0  0  0  0  0
    0.9344   -3.2950   -0.2237 N   0  0  0  0  0  0  0  0  0  0  0  0
    2.7796   -0.8509   -0.0748 N   0  0  0  0  0  0  0  0  0  0  0  0
    4.2384    1.9804   -0.2041 N   0  0  0  0  0  0  0  0  0  0  0  0
   -2.9812   -1.9170    1.2650 N   0  0  0  0  0  0  0  0  0  0  0  0
    1.0621    1.5860   -1.9207 N   0  0  0  0  0  0  0  0  0  0  0  0
    2.1032    3.4993   -1.0048 N   0  0  0  0  0  0  0  0  0  0  0  0
   -3.1944    3.0998    1.5103 N   0  3  0  0  0  0  0  0  0  0  0  0
   -1.0029    2.3448   -2.8325 N   0  0  0  0  0  0  0  0  0  0  0  0
    1.8220   -3.0485    0.8961 C   0  0  1  0  0  0  0  0  0  0  0  0
    2.7317   -2.3120   -0.1124 C   0  0  1  0  0  0  0  0  0  0  0  0
    1.7691   -2.8749   -1.1982 C   0  0  0  0  0  0  0  0  0  0  0  0
   -0.3211   -3.8056   -0.1125 C   0  0  0  0  0  0  0  0  0  0  0  0
   -0.3586   -3.2588    2.3728 C   0  0  0  0  0  0  0  0  0  0  0  0
   -0.9448   -3.8441    1.0897 C   0  0  0  0  0  0  0  0  0  0  0  0
   -1.0111   -4.2843   -1.3936 C   0  0  0  0  0  0  0  0  0  0  0  0
    3.3295   -0.0944   -1.0953 C   0  0  0  0  0  0  0  0  0  0  0  0
    3.2665    1.3876   -0.8296 C   0  0  0  0  0  0  0  0  0  0  0  0
   -3.4613   -3.1044    0.9688 C   0  0  0  0  0  0  0  0  0  0  0  0
    2.1166    2.1906   -1.2580 C   0  0  0  0  0  0  0  0  0  0  0  0
   -3.9114   -0.9589    0.9121 C   0  0  0  0  0  0  0  0  0  0  0  0
   -5.0813   -1.4309    0.3547 C   0  0  0  0  0  0  0  0  0  0  0  0
   -3.6644    0.4392    1.1180 C   0  0  0  0  0  0  0  0  0  0  0  0
    0.1780    2.5217   -2.1894 C   0  0  0  0  0  0  0  0  0  0  0  0
   -2.3632    0.9309    1.0746 C   0  0  0  0  0  0  0  0  0  0  0  0
   -4.7256    1.3059    1.3616 C   0  0  0  0  0  0  0  0  0  0  0  0
    6.2724    1.8086    0.8196 C   0  0  0  0  0  0  0  0  0  0  0  0
   -2.1543    2.2876    1.2777 C   0  0  0  0  0  0  0  0  0  0  0  0
   -4.4568    2.6531    1.5575 C   0  0  0  0  0  0  0  0  0  0  0  0
   -2.9429    4.5226    1.7209 C   0  0  0  0  0  0  0  0  0  0  0  0
    7.3847    0.8575    1.2063 C   0  0  0  0  0  0  0  0  0  0  0  0
    2.2623   -3.9671    1.3019 H   0  0  0  0  0  0  0  0  0  0  0  0
    3.7392   -2.7404   -0.1735 H   0  0  0  0  0  0  0  0  0  0  0  0
    2.4004   -0.3565    0.7293 H   0  0  0  0  0  0  0  0  0  0  0  0
    0.0548   -4.0711    2.9819 H   0  0  0  0  0  0  0  0  0  0  0  0
   -1.1276   -2.7615    2.9727 H   0  0  0  0  0  0  0  0  0  0  0  0
   -5.9453   -0.8935   -0.0107 H   0  0  0  0  0  0  0  0  0  0  0  0
   -1.5108    0.2857    0.8840 H   0  0  0  0  0  0  0  0  0  0  0  0
   -5.7560    0.9698    1.4235 H   0  0  0  0  0  0  0  0  0  0  0  0
    5.8545    2.2767    1.7180 H   0  0  0  0  0  0  0  0  0  0  0  0
    6.6652    2.5912    0.1604 H   0  0  0  0  0  0  0  0  0  0  0  0
   -1.1655    2.7301    1.2607 H   0  0  0  0  0  0  0  0  0  0  0  0
   -5.2375    3.3762    1.7606 H   0  0  0  0  0  0  0  0  0  0  0  0
   -1.5707    3.1804   -2.9583 H   0  0  0  0  0  0  0  0  0  0  0  0
   -3.8022    5.1030    1.3735 H   0  0  0  0  0  0  0  0  0  0  0  0
   -2.0599    4.8268    1.1518 H   0  0  0  0  0  0  0  0  0  0  0  0
   -2.7823    4.6757    2.7913 H   0  0  0  0  0  0  0  0  0  0  0  0
    8.1862    1.3854    1.7304 H   0  0  0  0  0  0  0  0  0  0  0  0
    7.8029    0.3718    0.3184 H   0  0  0  0  0  0  0  0  0  0  0  0
    7.0032    0.0614    1.8542 H   0  0  0  0  0  0  0  0  0  0  0  0
   -2.0812   -0.9692   -2.2043 H   0  0  0  0  0  0  0  0  0  0  0  0
   -3.5532    0.3473   -4.2970 H   0  0  0  0  0  0  0  0  0  0  0  0
  1 22  1  0  0  0  0
  1 26  1  0  0  0  0
  2 27  1  0  0  0  0
  2 31  1  0  0  0  0
  3 31  1  0  0  0  0
  3 34  1  0  0  0  0
  4 19  1  0  0  0  0
  4 36  1  0  0  0  0
  5 11  1  0  0  0  0
  5 12  1  0  0  0  0
  5 13  2  0  0  0  0
  5 21  1  0  0  0  0
  6 24  2  0  0  0  0
  7 28  2  0  0  0  0
  8 28  1  0  0  0  0
  9 29  2  0  0  0  0
 10 16  1  0  0  0  0
 10 39  1  0  0  0  0
 11 63  1  0  0  0  0
 12 64  1  0  0  0  0
 14 22  1  0  0  0  0
 14 24  1  0  0  0  0
 14 25  1  0  0  0  0
 15 23  1  0  0  0  0
 15 29  1  0  0  0  0
 15 46  1  0  0  0  0
 16 30  2  0  0  0  0
 17 31  2  0  0  0  0
 17 33  1  0  0  0  0
 18 32  1  0  0  0  0
 18 36  2  0  0  0  0
 19 32  2  0  0  0  0
 20 40  2  0  0  0  0
 20 41  1  0  0  0  0
 20 42  1  0  0  0  0
 21 36  1  0  0  0  0
 21 56  1  0  0  0  0
 22 23  1  6  0  0  0
 22 44  1  0  0  0  0
 23 24  1  0  0  0  0
 23 45  1  6  0  0  0
 25 27  2  0  0  0  0
 25 28  1  0  0  0  0
 26 27  1  0  0  0  0
 26 47  1  0  0  0  0
 26 48  1  0  0  0  0
 29 30  1  0  0  0  0
 30 32  1  0  0  0  0
 33 34  2  0  0  0  0
 33 35  1  0  0  0  0
 34 49  1  0  0  0  0
 35 37  2  0  0  0  0
 35 38  1  0  0  0  0
 37 40  1  0  0  0  0
 37 50  1  0  0  0  0
 38 41  2  0  0  0  0
 38 51  1  0  0  0  0
 39 43  1  0  0  0  0
 39 52  1  0  0  0  0
 39 53  1  0  0  0  0
 40 54  1  0  0  0  0
 41 55  1  0  0  0  0
 42 57  1  0  0  0  0
 42 58  1  0  0  0  0
 42 59  1  0  0  0  0
 43 60  1  0  0  0  0
 43 61  1  0  0  0  0
 43 62  1  0  0  0  0
M  CHG  1  20   1
M  END
