DB06821
 OpenBabel07062211533D

 31 32  0  0  0  0  0  0  0  0999 V2000
   -1.5837    2.6937   -0.2602 S   0  0  0  0  0  0  0  0  0  0  0  0
   -2.6406    3.4094    0.4448 O   0  0  0  0  0  0  0  0  0  0  0  0
   -1.2646    3.0818   -1.6286 O   0  0  0  0  0  0  0  0  0  0  0  0
    3.9511   -0.6151   -0.5468 O   0  0  0  0  0  0  0  0  0  0  0  0
   -0.1579    2.7593    0.7049 N   0  0  0  0  0  0  0  0  0  0  0  0
    1.5458    2.1052   -0.7900 N   0  0  0  0  0  0  0  0  0  0  0  0
    1.1900    0.9076    1.2708 N   0  0  0  0  0  0  0  0  0  0  0  0
   -2.9541   -3.0919   -0.1927 N   0  0  0  0  0  0  0  0  0  0  0  0
   -1.9866    0.9951   -0.2405 C   0  0  0  0  0  0  0  0  0  0  0  0
   -2.8233    0.4883    0.7539 C   0  0  0  0  0  0  0  0  0  0  0  0
   -1.4708    0.1443   -1.2183 C   0  0  0  0  0  0  0  0  0  0  0  0
   -2.6287   -1.7197   -0.2077 C   0  0  0  0  0  0  0  0  0  0  0  0
   -3.1442   -0.8692    0.7704 C   0  0  0  0  0  0  0  0  0  0  0  0
   -1.7919   -1.2129   -1.2019 C   0  0  0  0  0  0  0  0  0  0  0  0
    0.9239    1.8707    0.3754 C   0  0  0  0  0  0  0  0  0  0  0  0
    2.9353    0.2193   -0.2372 C   0  0  0  0  0  0  0  0  0  0  0  0
    2.5550    1.2537   -1.0674 C   0  0  0  0  0  0  0  0  0  0  0  0
    2.2101    0.0929    0.9301 C   0  0  0  0  0  0  0  0  0  0  0  0
    4.2600   -1.6542    0.3883 C   0  0  0  0  0  0  0  0  0  0  0  0
   -3.2303    1.1302    1.5299 H   0  0  0  0  0  0  0  0  0  0  0  0
   -0.8168    0.5163   -2.0018 H   0  0  0  0  0  0  0  0  0  0  0  0
   -0.3223    2.8301    1.7175 H   0  0  0  0  0  0  0  0  0  0  0  0
   -3.7959   -1.2525    1.5514 H   0  0  0  0  0  0  0  0  0  0  0  0
   -1.3832   -1.8655   -1.9693 H   0  0  0  0  0  0  0  0  0  0  0  0
    3.0633    1.4354   -2.0088 H   0  0  0  0  0  0  0  0  0  0  0  0
    2.3956   -0.6720    1.6751 H   0  0  0  0  0  0  0  0  0  0  0  0
   -3.5590   -3.4607    0.5290 H   0  0  0  0  0  0  0  0  0  0  0  0
   -2.5786   -3.7090   -0.9004 H   0  0  0  0  0  0  0  0  0  0  0  0
    4.5846   -1.2401    1.3487 H   0  0  0  0  0  0  0  0  0  0  0  0
    5.0988   -2.2243   -0.0233 H   0  0  0  0  0  0  0  0  0  0  0  0
    3.4189   -2.3460    0.5047 H   0  0  0  0  0  0  0  0  0  0  0  0
  1  2  2  0  0  0  0
  1  3  2  0  0  0  0
  1  5  1  0  0  0  0
  1  9  1  0  0  0  0
  4 16  1  0  0  0  0
  4 19  1  0  0  0  0
  5 15  1  0  0  0  0
  5 22  1  0  0  0  0
  6 15  2  0  0  0  0
  6 17  1  0  0  0  0
  7 15  1  0  0  0  0
  7 18  2  0  0  0  0
  8 12  1  0  0  0  0
  8 27  1  0  0  0  0
  8 28  1  0  0  0  0
  9 10  2  0  0  0  0
  9 11  1  0  0  0  0
 10 13  1  0  0  0  0
 10 20  1  0  0  0  0
 11 14  2  0  0  0  0
 11 21  1  0  0  0  0
 12 13  2  0  0  0  0
 12 14  1  0  0  0  0
 13 23  1  0  0  0  0
 14 24  1  0  0  0  0
 16 17  2  0  0  0  0
 16 18  1  0  0  0  0
 17 25  1  0  0  0  0
 18 26  1  0  0  0  0
 19 29  1  0  0  0  0
 19 30  1  0  0  0  0
 19 31  1  0  0  0  0
M  END
