DB06823
 OpenBabel07062211533D

 19 18  0  0  1  0  0  0  0  0999 V2000
   -1.6207   -2.0370   -0.0648 S   0  0  0  0  0  0  0  0  0  0  0  0
   -0.3900    0.8608   -1.4143 O   0  0  0  0  0  0  0  0  0  0  0  0
    2.3208   -1.2545   -0.4446 O   0  0  0  0  0  0  0  0  0  0  0  0
    4.0000    0.2622   -0.6089 O   0  0  0  0  0  0  0  0  0  0  0  0
    0.6083    0.3998    0.6293 N   0  0  0  0  0  0  0  0  0  0  0  0
   -1.6981   -0.2504    0.2895 C   0  0  1  0  0  0  0  0  0  0  0  0
   -0.4411    0.3922   -0.2788 C   0  0  0  0  0  0  0  0  0  0  0  0
   -2.9603    0.3403   -0.3247 C   0  0  0  0  0  0  0  0  0  0  0  0
    1.8983    0.9732    0.3248 C   0  0  0  0  0  0  0  0  0  0  0  0
    2.8528   -0.0205   -0.2859 C   0  0  0  0  0  0  0  0  0  0  0  0
   -1.7300   -0.1120    1.3756 H   0  0  0  0  0  0  0  0  0  0  0  0
    0.4857   -0.0352    1.5391 H   0  0  0  0  0  0  0  0  0  0  0  0
    2.3232    1.3317    1.2664 H   0  0  0  0  0  0  0  0  0  0  0  0
    1.7687    1.8061   -0.3726 H   0  0  0  0  0  0  0  0  0  0  0  0
   -3.0031    1.4194   -0.1380 H   0  0  0  0  0  0  0  0  0  0  0  0
   -2.9970    0.2012   -1.4115 H   0  0  0  0  0  0  0  0  0  0  0  0
   -3.8615   -0.1060    0.1099 H   0  0  0  0  0  0  0  0  0  0  0  0
   -0.5165   -2.2895    0.6535 H   0  0  0  0  0  0  0  0  0  0  0  0
    2.9605   -1.8818   -0.8441 H   0  0  0  0  0  0  0  0  0  0  0  0
  1  6  1  0  0  0  0
  1 18  1  0  0  0  0
  2  7  2  0  0  0  0
  3 10  1  0  0  0  0
  3 19  1  0  0  0  0
  4 10  2  0  0  0  0
  5  7  1  0  0  0  0
  5  9  1  0  0  0  0
  5 12  1  0  0  0  0
  6  7  1  0  0  0  0
  6  8  1  0  0  0  0
  6 11  1  1  0  0  0
  8 15  1  0  0  0  0
  8 16  1  0  0  0  0
  8 17  1  0  0  0  0
  9 10  1  0  0  0  0
  9 13  1  0  0  0  0
  9 14  1  0  0  0  0
M  END
