DB06691
 OpenBabel07062211533D

 44 45  0  0  0  0  0  0  0  0999 V2000
   -5.6084   -0.1337    0.6569 O   0  0  0  0  0  0  0  0  0  0  0  0
    0.5515    0.3630   -0.7143 N   0  0  0  0  0  0  0  0  0  0  0  0
    3.3090   -2.0938   -0.1710 N   0  0  0  0  0  0  0  0  0  0  0  0
    0.8662    2.7107   -0.9707 N   0  0  0  0  0  0  0  0  0  0  0  0
    1.1843   -0.8777   -0.2804 C   0  0  0  0  0  0  0  0  0  0  0  0
    2.6711   -0.8575   -0.6219 C   0  0  0  0  0  0  0  0  0  0  0  0
   -0.5053    0.2800   -1.7133 C   0  0  0  0  0  0  0  0  0  0  0  0
   -1.8673    0.1696   -1.0811 C   0  0  0  0  0  0  0  0  0  0  0  0
    0.9568    1.5924   -0.1967 C   0  0  0  0  0  0  0  0  0  0  0  0
   -2.5819    1.3234   -0.7921 C   0  0  0  0  0  0  0  0  0  0  0  0
   -2.3880   -1.0848   -0.7959 C   0  0  0  0  0  0  0  0  0  0  0  0
    3.1328   -2.2633    1.2709 C   0  0  0  0  0  0  0  0  0  0  0  0
    4.7303   -2.0909   -0.5154 C   0  0  0  0  0  0  0  0  0  0  0  0
    1.4451    1.6260    1.1110 C   0  0  0  0  0  0  0  0  0  0  0  0
   -3.8435    1.2207   -0.2056 C   0  0  0  0  0  0  0  0  0  0  0  0
   -3.6493   -1.1874   -0.2096 C   0  0  0  0  0  0  0  0  0  0  0  0
   -4.3772   -0.0346    0.0856 C   0  0  0  0  0  0  0  0  0  0  0  0
    1.8530    2.8449    1.6412 C   0  0  0  0  0  0  0  0  0  0  0  0
    1.2723    3.8773   -0.4213 C   0  0  0  0  0  0  0  0  0  0  0  0
    1.7683    3.9968    0.8669 C   0  0  0  0  0  0  0  0  0  0  0  0
   -6.1092   -1.4264    0.9344 C   0  0  0  0  0  0  0  0  0  0  0  0
    0.9651   -1.0262    0.7800 H   0  0  0  0  0  0  0  0  0  0  0  0
    0.7240   -1.7365   -0.7871 H   0  0  0  0  0  0  0  0  0  0  0  0
    2.7764   -0.7672   -1.7113 H   0  0  0  0  0  0  0  0  0  0  0  0
    3.1817    0.0097   -0.1873 H   0  0  0  0  0  0  0  0  0  0  0  0
   -0.3397   -0.5836   -2.3718 H   0  0  0  0  0  0  0  0  0  0  0  0
   -0.4818    1.1377   -2.3985 H   0  0  0  0  0  0  0  0  0  0  0  0
   -2.1775    2.3063   -1.0156 H   0  0  0  0  0  0  0  0  0  0  0  0
   -1.8302   -1.9891   -1.0222 H   0  0  0  0  0  0  0  0  0  0  0  0
    3.4029   -1.3645    1.8374 H   0  0  0  0  0  0  0  0  0  0  0  0
    3.7623   -3.0837    1.6375 H   0  0  0  0  0  0  0  0  0  0  0  0
    2.1126   -2.5641    1.5274 H   0  0  0  0  0  0  0  0  0  0  0  0
    5.2755   -1.2792   -0.0199 H   0  0  0  0  0  0  0  0  0  0  0  0
    4.8644   -1.9860   -1.5979 H   0  0  0  0  0  0  0  0  0  0  0  0
    5.1972   -3.0417   -0.2347 H   0  0  0  0  0  0  0  0  0  0  0  0
    1.5059    0.7527    1.7499 H   0  0  0  0  0  0  0  0  0  0  0  0
   -4.4058    2.1224    0.0216 H   0  0  0  0  0  0  0  0  0  0  0  0
   -4.0077   -2.1913   -0.0084 H   0  0  0  0  0  0  0  0  0  0  0  0
    2.2320    2.8986    2.6574 H   0  0  0  0  0  0  0  0  0  0  0  0
    1.1851    4.7456   -1.0658 H   0  0  0  0  0  0  0  0  0  0  0  0
    2.0793    4.9579    1.2598 H   0  0  0  0  0  0  0  0  0  0  0  0
   -6.2467   -2.0126    0.0192 H   0  0  0  0  0  0  0  0  0  0  0  0
   -7.0990   -1.3062    1.3870 H   0  0  0  0  0  0  0  0  0  0  0  0
   -5.4868   -1.9536    1.6656 H   0  0  0  0  0  0  0  0  0  0  0  0
  1 17  1  0  0  0  0
  1 21  1  0  0  0  0
  2  5  1  0  0  0  0
  2  7  1  0  0  0  0
  2  9  1  0  0  0  0
  3  6  1  0  0  0  0
  3 12  1  0  0  0  0
  3 13  1  0  0  0  0
  4  9  2  0  0  0  0
  4 19  1  0  0  0  0
  5  6  1  0  0  0  0
  5 22  1  0  0  0  0
  5 23  1  0  0  0  0
  6 24  1  0  0  0  0
  6 25  1  0  0  0  0
  7  8  1  0  0  0  0
  7 26  1  0  0  0  0
  7 27  1  0  0  0  0
  8 10  2  0  0  0  0
  8 11  1  0  0  0  0
  9 14  1  0  0  0  0
 10 15  1  0  0  0  0
 10 28  1  0  0  0  0
 11 16  2  0  0  0  0
 11 29  1  0  0  0  0
 12 30  1  0  0  0  0
 12 31  1  0  0  0  0
 12 32  1  0  0  0  0
 13 33  1  0  0  0  0
 13 34  1  0  0  0  0
 13 35  1  0  0  0  0
 14 18  2  0  0  0  0
 14 36  1  0  0  0  0
 15 17  2  0  0  0  0
 15 37  1  0  0  0  0
 16 17  1  0  0  0  0
 16 38  1  0  0  0  0
 18 20  1  0  0  0  0
 18 39  1  0  0  0  0
 19 20  2  0  0  0  0
 19 40  1  0  0  0  0
 20 41  1  0  0  0  0
 21 42  1  0  0  0  0
 21 43  1  0  0  0  0
 21 44  1  0  0  0  0
M  END
