DB06144
 OpenBabel07062211533D

 57 61  0  0  0  0  0  0  0  0999 V2000
    3.8543    5.5715   -0.4183 Cl  0  0  0  0  0  0  0  0  0  0  0  0
    7.8489   -4.1100   -0.1753 F   0  0  0  0  0  0  0  0  0  0  0  0
   -6.3865   -2.6979    0.9288 O   0  0  0  0  0  0  0  0  0  0  0  0
   -2.3242   -0.1933    0.5616 N   0  0  0  0  0  0  0  0  0  0  0  0
    3.9090   -0.2580   -0.0390 N   0  0  0  0  0  0  0  0  0  0  0  0
   -5.9022   -0.7455   -0.3046 N   0  0  0  0  0  0  0  0  0  0  0  0
   -8.0457   -1.1848    0.2656 N   0  0  0  0  0  0  0  0  0  0  0  0
    0.4038    0.8328    0.2284 C   0  0  0  0  0  0  0  0  0  0  0  0
   -0.3735    0.1669   -0.9187 C   0  0  0  0  0  0  0  0  0  0  0  0
   -0.1305    0.3319    1.5801 C   0  0  0  0  0  0  0  0  0  0  0  0
   -1.8840    0.3352   -0.7368 C   0  0  0  0  0  0  0  0  0  0  0  0
   -1.6499    0.4945    1.6709 C   0  0  0  0  0  0  0  0  0  0  0  0
    1.9007    0.6655    0.0941 C   0  0  0  0  0  0  0  0  0  0  0  0
   -3.7763   -0.0772    0.6952 C   0  0  0  0  0  0  0  0  0  0  0  0
    2.8524    1.7066   -0.0660 C   0  0  0  0  0  0  0  0  0  0  0  0
   -4.4726   -0.8238   -0.4330 C   0  0  0  0  0  0  0  0  0  0  0  0
    2.5751   -0.5299    0.1075 C   0  0  0  0  0  0  0  0  0  0  0  0
    4.1075    1.1000   -0.1476 C   0  0  0  0  0  0  0  0  0  0  0  0
   -6.6660    0.3877   -0.7973 C   0  0  0  0  0  0  0  0  0  0  0  0
    2.7711    3.1109   -0.1501 C   0  0  0  0  0  0  0  0  0  0  0  0
   -8.1159    0.0261   -0.5119 C   0  0  0  0  0  0  0  0  0  0  0  0
    5.2903    1.8303   -0.3098 C   0  0  0  0  0  0  0  0  0  0  0  0
    4.9077   -1.2350   -0.0734 C   0  0  0  0  0  0  0  0  0  0  0  0
   -6.7306   -1.6683    0.3637 C   0  0  0  0  0  0  0  0  0  0  0  0
    3.9458    3.8542   -0.3124 C   0  0  0  0  0  0  0  0  0  0  0  0
    5.1849    3.2217   -0.3909 C   0  0  0  0  0  0  0  0  0  0  0  0
    4.6128   -2.4956   -0.5723 C   0  0  0  0  0  0  0  0  0  0  0  0
    6.1783   -0.9284    0.3922 C   0  0  0  0  0  0  0  0  0  0  0  0
    5.6099   -3.4705   -0.6064 C   0  0  0  0  0  0  0  0  0  0  0  0
    7.1753   -1.9033    0.3581 C   0  0  0  0  0  0  0  0  0  0  0  0
    6.8911   -3.1744   -0.1412 C   0  0  0  0  0  0  0  0  0  0  0  0
    0.1815    1.9079    0.1790 H   0  0  0  0  0  0  0  0  0  0  0  0
   -0.1319   -0.9033   -0.9717 H   0  0  0  0  0  0  0  0  0  0  0  0
   -0.0698    0.6029   -1.8788 H   0  0  0  0  0  0  0  0  0  0  0  0
    0.3451    0.8847    2.3998 H   0  0  0  0  0  0  0  0  0  0  0  0
    0.1285   -0.7253    1.7250 H   0  0  0  0  0  0  0  0  0  0  0  0
   -2.3190   -0.2128   -1.5760 H   0  0  0  0  0  0  0  0  0  0  0  0
   -2.1577    1.3925   -0.8481 H   0  0  0  0  0  0  0  0  0  0  0  0
   -1.9054    1.5623    1.6836 H   0  0  0  0  0  0  0  0  0  0  0  0
   -1.9803    0.0699    2.6267 H   0  0  0  0  0  0  0  0  0  0  0  0
   -4.0884    0.9756    0.7010 H   0  0  0  0  0  0  0  0  0  0  0  0
   -4.0947   -0.5068    1.6538 H   0  0  0  0  0  0  0  0  0  0  0  0
   -4.2549   -0.4323   -1.4290 H   0  0  0  0  0  0  0  0  0  0  0  0
   -4.1866   -1.8821   -0.4084 H   0  0  0  0  0  0  0  0  0  0  0  0
    2.1954   -1.5357    0.2333 H   0  0  0  0  0  0  0  0  0  0  0  0
   -6.4804    0.5293   -1.8662 H   0  0  0  0  0  0  0  0  0  0  0  0
   -6.3620    1.2861   -0.2514 H   0  0  0  0  0  0  0  0  0  0  0  0
    1.8076    3.6097   -0.0899 H   0  0  0  0  0  0  0  0  0  0  0  0
   -8.6385    0.7985    0.0587 H   0  0  0  0  0  0  0  0  0  0  0  0
   -8.6729   -0.1859   -1.4292 H   0  0  0  0  0  0  0  0  0  0  0  0
    6.2673    1.3963   -0.4731 H   0  0  0  0  0  0  0  0  0  0  0  0
   -8.8523   -1.6612    0.6565 H   0  0  0  0  0  0  0  0  0  0  0  0
    6.0913    3.8052   -0.5384 H   0  0  0  0  0  0  0  0  0  0  0  0
    3.6351   -2.7573   -0.9663 H   0  0  0  0  0  0  0  0  0  0  0  0
    6.4262   -0.0155    0.9201 H   0  0  0  0  0  0  0  0  0  0  0  0
    5.3911   -4.4587   -1.0003 H   0  0  0  0  0  0  0  0  0  0  0  0
    8.1650   -1.6837    0.7479 H   0  0  0  0  0  0  0  0  0  0  0  0
  1 25  1  0  0  0  0
  2 31  1  0  0  0  0
  3 24  2  0  0  0  0
  4 11  1  0  0  0  0
  4 12  1  0  0  0  0
  4 14  1  0  0  0  0
  5 17  1  0  0  0  0
  5 18  2  0  0  0  0
  5 23  1  0  0  0  0
  6 16  1  0  0  0  0
  6 19  1  0  0  0  0
  6 24  1  0  0  0  0
  7 21  1  0  0  0  0
  7 24  1  0  0  0  0
  7 52  1  0  0  0  0
  8  9  1  0  0  0  0
  8 10  1  0  0  0  0
  8 13  1  0  0  0  0
  8 32  1  0  0  0  0
  9 11  1  0  0  0  0
  9 33  1  0  0  0  0
  9 34  1  0  0  0  0
 10 12  1  0  0  0  0
 10 35  1  0  0  0  0
 10 36  1  0  0  0  0
 11 37  1  0  0  0  0
 11 38  1  0  0  0  0
 12 39  1  0  0  0  0
 12 40  1  0  0  0  0
 13 15  2  0  0  0  0
 13 17  1  0  0  0  0
 14 16  1  0  0  0  0
 14 41  1  0  0  0  0
 14 42  1  0  0  0  0
 15 18  1  0  0  0  0
 15 20  1  0  0  0  0
 16 43  1  0  0  0  0
 16 44  1  0  0  0  0
 17 45  1  0  0  0  0
 18 22  1  0  0  0  0
 19 21  1  0  0  0  0
 19 46  1  0  0  0  0
 19 47  1  0  0  0  0
 20 25  2  0  0  0  0
 20 48  1  0  0  0  0
 21 49  1  0  0  0  0
 21 50  1  0  0  0  0
 22 26  2  0  0  0  0
 22 51  1  0  0  0  0
 23 27  2  0  0  0  0
 23 28  1  0  0  0  0
 25 26  1  0  0  0  0
 26 53  1  0  0  0  0
 27 29  1  0  0  0  0
 27 54  1  0  0  0  0
 28 30  2  0  0  0  0
 28 55  1  0  0  0  0
 29 31  2  0  0  0  0
 29 56  1  0  0  0  0
 30 31  1  0  0  0  0
 30 57  1  0  0  0  0
M  END
