DB06335
 OpenBabel07062211533D

 48 52  0  0  1  0  0  0  0  0999 V2000
   -1.8131   -3.0046    0.1902 O   0  0  0  0  0  0  0  0  0  0  0  0
    1.0774    1.1553   -1.9623 O   0  0  0  0  0  0  0  0  0  0  0  0
    2.5632    0.4105   -0.3537 N   0  0  0  0  0  0  0  0  0  0  0  0
    0.2268    2.8394    0.1966 N   0  0  0  0  0  0  0  0  0  0  0  0
    2.8603   -2.2702   -2.4937 N   0  0  0  0  0  0  0  0  0  0  0  0
   -0.9049    0.6681    0.1695 C   0  0  2  0  0  0  0  0  0  0  0  0
   -2.0262   -1.6021    0.1165 C   0  0  2  0  0  0  0  0  0  0  0  0
   -3.2244    0.3579    1.1471 C   0  0  2  0  0  0  0  0  0  0  0  0
   -2.8916    0.2519   -1.3510 C   0  0  1  0  0  0  0  0  0  0  0  0
   -0.6870   -0.8592    0.2632 C   0  0  0  0  0  0  0  0  0  0  0  0
   -1.8820    1.0971    1.2902 C   0  0  0  0  0  0  0  0  0  0  0  0
   -1.5504    0.9915   -1.1994 C   0  0  0  0  0  0  0  0  0  0  0  0
   -2.9790   -1.1561    1.2386 C   0  0  0  0  0  0  0  0  0  0  0  0
   -2.6478   -1.2616   -1.2488 C   0  0  0  0  0  0  0  0  0  0  0  0
   -3.8411    0.6892   -0.2224 C   0  0  0  0  0  0  0  0  0  0  0  0
    0.4286    1.4056    0.3155 C   0  0  1  0  0  0  0  0  0  0  0  0
    2.9774    0.2236    1.0131 C   0  0  2  0  0  0  0  0  0  0  0  0
    4.4007   -0.2556    1.0266 C   0  0  1  0  0  0  0  0  0  0  0  0
    3.3079   -1.1346    1.5689 C   0  0  0  0  0  0  0  0  0  0  0  0
    4.8666   -0.3070   -0.4029 C   0  0  0  0  0  0  0  0  0  0  0  0
    1.3753    0.9828   -0.7794 C   0  0  0  0  0  0  0  0  0  0  0  0
    3.6148   -0.0611   -1.2775 C   0  0  1  0  0  0  0  0  0  0  0  0
    3.1928   -1.2964   -1.9576 C   0  0  0  0  0  0  0  0  0  0  0  0
   -3.9060    0.6710    1.9457 H   0  0  0  0  0  0  0  0  0  0  0  0
   -3.3399    0.4893   -2.3225 H   0  0  0  0  0  0  0  0  0  0  0  0
    0.0016   -1.2214   -0.5108 H   0  0  0  0  0  0  0  0  0  0  0  0
   -0.2175   -1.1267    1.2196 H   0  0  0  0  0  0  0  0  0  0  0  0
   -1.4486    0.8810    2.2754 H   0  0  0  0  0  0  0  0  0  0  0  0
   -2.0727    2.1771    1.2600 H   0  0  0  0  0  0  0  0  0  0  0  0
   -1.7386    2.0635   -1.3255 H   0  0  0  0  0  0  0  0  0  0  0  0
   -0.9627    0.6553   -2.0533 H   0  0  0  0  0  0  0  0  0  0  0  0
   -2.5582   -1.4195    2.2177 H   0  0  0  0  0  0  0  0  0  0  0  0
   -3.9291   -1.7013    1.1684 H   0  0  0  0  0  0  0  0  0  0  0  0
   -3.5901   -1.8087   -1.3834 H   0  0  0  0  0  0  0  0  0  0  0  0
   -1.9903   -1.6019   -2.0594 H   0  0  0  0  0  0  0  0  0  0  0  0
   -4.8079    0.1821   -0.3296 H   0  0  0  0  0  0  0  0  0  0  0  0
   -4.0369    1.7662   -0.2943 H   0  0  0  0  0  0  0  0  0  0  0  0
    2.7944    1.0545    1.6839 H   0  0  0  0  0  0  0  0  0  0  0  0
    0.8053    1.2089    1.3186 H   0  0  0  0  0  0  0  0  0  0  0  0
    5.1081    0.1834    1.7145 H   0  0  0  0  0  0  0  0  0  0  0  0
    3.0198   -2.0130    1.0052 H   0  0  0  0  0  0  0  0  0  0  0  0
    3.2499   -1.2618    2.6434 H   0  0  0  0  0  0  0  0  0  0  0  0
    5.3788   -1.2493   -0.6254 H   0  0  0  0  0  0  0  0  0  0  0  0
    5.5832    0.5077   -0.5639 H   0  0  0  0  0  0  0  0  0  0  0  0
    3.8039    0.7193   -2.0234 H   0  0  0  0  0  0  0  0  0  0  0  0
   -2.6759   -3.4448    0.1043 H   0  0  0  0  0  0  0  0  0  0  0  0
   -0.0125    3.0988   -0.7589 H   0  0  0  0  0  0  0  0  0  0  0  0
    1.0979    3.3261    0.4060 H   0  0  0  0  0  0  0  0  0  0  0  0
  1 46  1  0  0  0  0
  2 21  2  0  0  0  0
  3 17  1  0  0  0  0
  3 21  1  0  0  0  0
  3 22  1  0  0  0  0
  4 16  1  0  0  0  0
  4 47  1  0  0  0  0
  4 48  1  0  0  0  0
  5 23  3  0  0  0  0
  6 10  1  0  0  0  0
  6 11  1  0  0  0  0
  6 12  1  0  0  0  0
  6 16  1  1  0  0  0
  7  1  1  1  0  0  0
  7 10  1  0  0  0  0
  7 13  1  0  0  0  0
  7 14  1  0  0  0  0
  8 11  1  0  0  0  0
  8 13  1  0  0  0  0
  8 15  1  0  0  0  0
  8 24  1  1  0  0  0
  9 12  1  0  0  0  0
  9 14  1  0  0  0  0
  9 15  1  0  0  0  0
  9 25  1  6  0  0  0
 10 26  1  0  0  0  0
 10 27  1  0  0  0  0
 11 28  1  0  0  0  0
 11 29  1  0  0  0  0
 12 30  1  0  0  0  0
 12 31  1  0  0  0  0
 13 32  1  0  0  0  0
 13 33  1  0  0  0  0
 14 34  1  0  0  0  0
 14 35  1  0  0  0  0
 15 36  1  0  0  0  0
 15 37  1  0  0  0  0
 16 21  1  0  0  0  0
 16 39  1  1  0  0  0
 17 18  1  6  0  0  0
 17 19  1  0  0  0  0
 17 38  1  0  0  0  0
 18 19  1  0  0  0  0
 18 20  1  0  0  0  0
 18 40  1  1  0  0  0
 19 41  1  0  0  0  0
 19 42  1  0  0  0  0
 20 22  1  0  0  0  0
 20 43  1  0  0  0  0
 20 44  1  0  0  0  0
 22 23  1  0  0  0  0
 22 45  1  6  0  0  0
M  END
