DB06716
 OpenBabel07062211533D

 40 40  0  0  0  0  0  0  0  0999 V2000
    0.2967   -4.3756    0.2068 P   0  0  0  0  0  0  0  0  0  0  0  0
    0.0233   -0.5685    0.9633 O   0  0  0  0  0  0  0  0  0  0  0  0
    0.2057   -2.9350    0.9356 O   0  0  0  0  0  0  0  0  0  0  0  0
    1.5279   -4.2312   -0.8330 O   0  0  0  0  0  0  0  0  0  0  0  0
   -0.9996   -4.4285   -0.7601 O   0  0  0  0  0  0  0  0  0  0  0  0
    0.4136   -5.5493    1.1354 O   0  0  0  0  0  0  0  0  0  0  0  0
    2.4649    0.7513    0.3445 C   0  0  0  0  0  0  0  0  0  0  0  0
   -2.5499    0.4657    0.3372 C   0  0  0  0  0  0  0  0  0  0  0  0
    1.1274    1.3199    0.0015 C   0  0  0  0  0  0  0  0  0  0  0  0
   -1.2848    1.1824   -0.0022 C   0  0  0  0  0  0  0  0  0  0  0  0
   -0.0440    0.6354    0.3255 C   0  0  0  0  0  0  0  0  0  0  0  0
    1.0583    2.5513   -0.6499 C   0  0  0  0  0  0  0  0  0  0  0  0
   -1.3538    2.4139   -0.6537 C   0  0  0  0  0  0  0  0  0  0  0  0
    3.2483    1.6435    1.3250 C   0  0  0  0  0  0  0  0  0  0  0  0
    3.3203    0.4681   -0.9041 C   0  0  0  0  0  0  0  0  0  0  0  0
   -3.3642    0.0878   -0.9138 C   0  0  0  0  0  0  0  0  0  0  0  0
   -3.4322    1.2629    1.3153 C   0  0  0  0  0  0  0  0  0  0  0  0
   -0.1822    3.0983   -0.9776 C   0  0  0  0  0  0  0  0  0  0  0  0
    0.0921   -1.7497    0.1584 C   0  0  0  0  0  0  0  0  0  0  0  0
    2.3519   -0.2107    0.8572 H   0  0  0  0  0  0  0  0  0  0  0  0
   -2.3304   -0.4770    0.8508 H   0  0  0  0  0  0  0  0  0  0  0  0
    1.9565    3.1033   -0.9126 H   0  0  0  0  0  0  0  0  0  0  0  0
   -2.3078    2.8605   -0.9193 H   0  0  0  0  0  0  0  0  0  0  0  0
    3.5083    2.6110    0.8822 H   0  0  0  0  0  0  0  0  0  0  0  0
    4.1814    1.1553    1.6268 H   0  0  0  0  0  0  0  0  0  0  0  0
    2.6615    1.8351    2.2301 H   0  0  0  0  0  0  0  0  0  0  0  0
    2.7851   -0.1823   -1.6046 H   0  0  0  0  0  0  0  0  0  0  0  0
    4.2523   -0.0351   -0.6243 H   0  0  0  0  0  0  0  0  0  0  0  0
    3.5866    1.3873   -1.4366 H   0  0  0  0  0  0  0  0  0  0  0  0
   -3.7315    0.9711   -1.4473 H   0  0  0  0  0  0  0  0  0  0  0  0
   -4.2340   -0.5177   -0.6367 H   0  0  0  0  0  0  0  0  0  0  0  0
   -2.7566   -0.4977   -1.6128 H   0  0  0  0  0  0  0  0  0  0  0  0
   -2.8736    1.5197    2.2223 H   0  0  0  0  0  0  0  0  0  0  0  0
   -4.3047    0.6720    1.6144 H   0  0  0  0  0  0  0  0  0  0  0  0
   -3.7990    2.1949    0.8719 H   0  0  0  0  0  0  0  0  0  0  0  0
   -0.2360    4.0572   -1.4849 H   0  0  0  0  0  0  0  0  0  0  0  0
    0.9600   -1.6874   -0.5061 H   0  0  0  0  0  0  0  0  0  0  0  0
   -0.8119   -1.8229   -0.4546 H   0  0  0  0  0  0  0  0  0  0  0  0
    2.4451   -4.3213   -0.4972 H   0  0  0  0  0  0  0  0  0  0  0  0
   -1.8712   -4.6577   -0.3726 H   0  0  0  0  0  0  0  0  0  0  0  0
  1  3  1  0  0  0  0
  1  4  1  0  0  0  0
  1  5  1  0  0  0  0
  1  6  2  0  0  0  0
  2 11  1  0  0  0  0
  2 19  1  0  0  0  0
  3 19  1  0  0  0  0
  4 39  1  0  0  0  0
  5 40  1  0  0  0  0
  7  9  1  0  0  0  0
  7 14  1  0  0  0  0
  7 15  1  0  0  0  0
  7 20  1  0  0  0  0
  8 10  1  0  0  0  0
  8 16  1  0  0  0  0
  8 17  1  0  0  0  0
  8 21  1  0  0  0  0
  9 11  2  0  0  0  0
  9 12  1  0  0  0  0
 10 11  1  0  0  0  0
 10 13  2  0  0  0  0
 12 18  2  0  0  0  0
 12 22  1  0  0  0  0
 13 18  1  0  0  0  0
 13 23  1  0  0  0  0
 14 24  1  0  0  0  0
 14 25  1  0  0  0  0
 14 26  1  0  0  0  0
 15 27  1  0  0  0  0
 15 28  1  0  0  0  0
 15 29  1  0  0  0  0
 16 30  1  0  0  0  0
 16 31  1  0  0  0  0
 16 32  1  0  0  0  0
 17 33  1  0  0  0  0
 17 34  1  0  0  0  0
 17 35  1  0  0  0  0
 18 36  1  0  0  0  0
 19 37  1  0  0  0  0
 19 38  1  0  0  0  0
M  END
