DB06261
 OpenBabel07062211533D

 36 35  0  0  0  0  0  0  0  0999 V2000
   -0.4128   -0.0775   -0.0400 O   0  0  0  0  0  0  0  0  0  0  0  0
   -1.6495    1.8677    0.0526 O   0  0  0  0  0  0  0  0  0  0  0  0
   -5.1526   -1.7460   -0.1684 O   0  0  0  0  0  0  0  0  0  0  0  0
   -7.6898   -0.8601   -0.1067 N   0  0  0  0  0  0  0  0  0  0  0  0
    3.3096    0.4886    0.0603 C   0  0  0  0  0  0  0  0  0  0  0  0
    4.5356   -0.4265   -0.0066 C   0  0  0  0  0  0  0  0  0  0  0  0
    1.9834   -0.2658   -0.0169 C   0  0  0  0  0  0  0  0  0  0  0  0
    5.8626    0.3265    0.0955 C   0  0  0  0  0  0  0  0  0  0  0  0
    0.7957    0.6869    0.0202 C   0  0  0  0  0  0  0  0  0  0  0  0
    7.0475   -0.6167   -0.0488 C   0  0  0  0  0  0  0  0  0  0  0  0
   -2.7452   -0.3016   -0.0951 C   0  0  0  0  0  0  0  0  0  0  0  0
   -4.0902    0.4189   -0.0589 C   0  0  0  0  0  0  0  0  0  0  0  0
   -1.5700    0.6489   -0.0152 C   0  0  0  0  0  0  0  0  0  0  0  0
   -5.2860   -0.5252   -0.0968 C   0  0  0  0  0  0  0  0  0  0  0  0
   -6.6439    0.1508   -0.0503 C   0  0  0  0  0  0  0  0  0  0  0  0
    3.3621    1.2144   -0.7608 H   0  0  0  0  0  0  0  0  0  0  0  0
    3.3435    1.0643    0.9937 H   0  0  0  0  0  0  0  0  0  0  0  0
    4.5082   -0.9870   -0.9496 H   0  0  0  0  0  0  0  0  0  0  0  0
    4.4775   -1.1658    0.8018 H   0  0  0  0  0  0  0  0  0  0  0  0
    1.9056   -0.9803    0.8117 H   0  0  0  0  0  0  0  0  0  0  0  0
    1.9405   -0.8645   -0.9351 H   0  0  0  0  0  0  0  0  0  0  0  0
    5.9231    0.8427    1.0604 H   0  0  0  0  0  0  0  0  0  0  0  0
    5.9159    1.0922   -0.6870 H   0  0  0  0  0  0  0  0  0  0  0  0
    0.8084    1.2688    0.9491 H   0  0  0  0  0  0  0  0  0  0  0  0
    0.8340    1.3709   -0.8358 H   0  0  0  0  0  0  0  0  0  0  0  0
    7.0386   -1.3801    0.7356 H   0  0  0  0  0  0  0  0  0  0  0  0
    7.0319   -1.1211   -1.0201 H   0  0  0  0  0  0  0  0  0  0  0  0
    7.9864   -0.0598    0.0297 H   0  0  0  0  0  0  0  0  0  0  0  0
   -2.6600   -0.8752   -1.0251 H   0  0  0  0  0  0  0  0  0  0  0  0
   -2.6783   -0.9974    0.7494 H   0  0  0  0  0  0  0  0  0  0  0  0
   -4.1652    1.0175    0.8564 H   0  0  0  0  0  0  0  0  0  0  0  0
   -4.1696    1.0988   -0.9150 H   0  0  0  0  0  0  0  0  0  0  0  0
   -6.7258    0.7275    0.8756 H   0  0  0  0  0  0  0  0  0  0  0  0
   -6.7318    0.8208   -0.9103 H   0  0  0  0  0  0  0  0  0  0  0  0
   -7.6391   -1.4514    0.7222 H   0  0  0  0  0  0  0  0  0  0  0  0
   -8.6008   -0.4043   -0.0718 H   0  0  0  0  0  0  0  0  0  0  0  0
  1  9  1  0  0  0  0
  1 13  1  0  0  0  0
  2 13  2  0  0  0  0
  3 14  2  0  0  0  0
  4 15  1  0  0  0  0
  4 35  1  0  0  0  0
  4 36  1  0  0  0  0
  5  6  1  0  0  0  0
  5  7  1  0  0  0  0
  5 16  1  0  0  0  0
  5 17  1  0  0  0  0
  6  8  1  0  0  0  0
  6 18  1  0  0  0  0
  6 19  1  0  0  0  0
  7  9  1  0  0  0  0
  7 20  1  0  0  0  0
  7 21  1  0  0  0  0
  8 10  1  0  0  0  0
  8 22  1  0  0  0  0
  8 23  1  0  0  0  0
  9 24  1  0  0  0  0
  9 25  1  0  0  0  0
 10 26  1  0  0  0  0
 10 27  1  0  0  0  0
 10 28  1  0  0  0  0
 11 12  1  0  0  0  0
 11 13  1  0  0  0  0
 11 29  1  0  0  0  0
 11 30  1  0  0  0  0
 12 14  1  0  0  0  0
 12 31  1  0  0  0  0
 12 32  1  0  0  0  0
 14 15  1  0  0  0  0
 15 33  1  0  0  0  0
 15 34  1  0  0  0  0
M  END
