DB06780
 OpenBabel07062211533D

 59 62  0  0  1  0  0  0  0  0999 V2000
    4.2439    1.4489   -0.9508 O   0  0  0  0  0  0  0  0  0  0  0  0
    5.6754   -0.6096    0.0147 O   0  0  0  0  0  0  0  0  0  0  0  0
   -6.8146   -1.5869    1.4730 O   0  0  0  0  0  0  0  0  0  0  0  0
    6.0518   -2.3897    1.4383 O   0  0  0  0  0  0  0  0  0  0  0  0
    0.0922    1.5008    0.4013 C   0  0  2  0  0  0  0  0  0  0  0  0
    1.2084    0.5725   -0.1233 C   0  0  1  0  0  0  0  0  0  0  0  0
   -1.2900    1.1478   -0.1579 C   0  0  1  0  0  0  0  0  0  0  0  0
   -1.6388   -0.3177    0.2513 C   0  0  1  0  0  0  0  0  0  0  0  0
   -3.0678   -0.7676   -0.2430 C   0  0  2  0  0  0  0  0  0  0  0  0
    2.4243    1.2276    0.5685 C   0  0  2  0  0  0  0  0  0  0  0  0
    0.8907   -0.8529    0.3481 C   0  0  0  0  0  0  0  0  0  0  0  0
   -0.5024   -1.3091   -0.1217 C   0  0  0  0  0  0  0  0  0  0  0  0
    0.6538    2.8984    0.1624 C   0  0  0  0  0  0  0  0  0  0  0  0
    2.1580    2.7429    0.4507 C   0  0  0  0  0  0  0  0  0  0  0  0
   -2.3665    2.1093    0.3612 C   0  0  0  0  0  0  0  0  0  0  0  0
    1.3683    0.5918   -1.6659 C   0  0  0  0  0  0  0  0  0  0  0  0
   -4.1016    0.2996    0.1396 C   0  0  0  0  0  0  0  0  0  0  0  0
   -3.7432    1.7336   -0.1717 C   0  0  0  0  0  0  0  0  0  0  0  0
   -3.4195   -2.1192    0.4443 C   0  0  0  0  0  0  0  0  0  0  0  0
   -3.1159   -0.9579   -1.7759 C   0  0  0  0  0  0  0  0  0  0  0  0
    3.7496    0.8346   -0.0066 C   0  0  0  0  0  0  0  0  0  0  0  0
   -4.8939   -2.4813    0.3589 C   0  0  0  0  0  0  0  0  0  0  0  0
   -5.2903    0.0261    0.7029 C   0  0  0  0  0  0  0  0  0  0  0  0
   -5.7403   -1.3684    0.9165 C   0  0  0  0  0  0  0  0  0  0  0  0
    4.4350   -0.3514    0.6379 C   0  0  0  0  0  0  0  0  0  0  0  0
    6.3945   -1.6662    0.5130 C   0  0  0  0  0  0  0  0  0  0  0  0
    7.6802   -1.8207   -0.2412 C   0  0  0  0  0  0  0  0  0  0  0  0
    0.0285    1.3823    1.4963 H   0  0  0  0  0  0  0  0  0  0  0  0
   -1.2700    1.2334   -1.2497 H   0  0  0  0  0  0  0  0  0  0  0  0
   -1.6777   -0.3189    1.3531 H   0  0  0  0  0  0  0  0  0  0  0  0
    2.4338    0.9786    1.6386 H   0  0  0  0  0  0  0  0  0  0  0  0
    0.9274   -0.9072    1.4436 H   0  0  0  0  0  0  0  0  0  0  0  0
    1.6370   -1.5625   -0.0253 H   0  0  0  0  0  0  0  0  0  0  0  0
   -0.4781   -1.4689   -1.2042 H   0  0  0  0  0  0  0  0  0  0  0  0
   -0.6980   -2.2884    0.3288 H   0  0  0  0  0  0  0  0  0  0  0  0
    0.1989    3.6444    0.8220 H   0  0  0  0  0  0  0  0  0  0  0  0
    0.4915    3.2255   -0.8705 H   0  0  0  0  0  0  0  0  0  0  0  0
    2.7387    3.2413   -0.3325 H   0  0  0  0  0  0  0  0  0  0  0  0
    2.4163    3.2371    1.3947 H   0  0  0  0  0  0  0  0  0  0  0  0
   -2.1381    3.1355    0.0510 H   0  0  0  0  0  0  0  0  0  0  0  0
   -2.3810    2.1045    1.4588 H   0  0  0  0  0  0  0  0  0  0  0  0
    1.6550    1.5774   -2.0459 H   0  0  0  0  0  0  0  0  0  0  0  0
    2.1408   -0.1178   -1.9845 H   0  0  0  0  0  0  0  0  0  0  0  0
    0.4521    0.3071   -2.1898 H   0  0  0  0  0  0  0  0  0  0  0  0
   -3.7675    1.8781   -1.2589 H   0  0  0  0  0  0  0  0  0  0  0  0
   -4.4820    2.4286    0.2462 H   0  0  0  0  0  0  0  0  0  0  0  0
   -3.1438   -2.0715    1.5071 H   0  0  0  0  0  0  0  0  0  0  0  0
   -2.8357   -2.9391    0.0091 H   0  0  0  0  0  0  0  0  0  0  0  0
   -2.7441   -0.0813   -2.3150 H   0  0  0  0  0  0  0  0  0  0  0  0
   -2.5171   -1.8176   -2.0947 H   0  0  0  0  0  0  0  0  0  0  0  0
   -4.1391   -1.1353   -2.1274 H   0  0  0  0  0  0  0  0  0  0  0  0
   -5.0759   -3.3860    0.9498 H   0  0  0  0  0  0  0  0  0  0  0  0
   -5.2062   -2.6791   -0.6712 H   0  0  0  0  0  0  0  0  0  0  0  0
   -5.9910    0.8095    0.9715 H   0  0  0  0  0  0  0  0  0  0  0  0
    3.7902   -1.2283    0.5397 H   0  0  0  0  0  0  0  0  0  0  0  0
    4.5989   -0.1162    1.6951 H   0  0  0  0  0  0  0  0  0  0  0  0
    8.2832   -0.9156   -0.1335 H   0  0  0  0  0  0  0  0  0  0  0  0
    7.4693   -2.0198   -1.2950 H   0  0  0  0  0  0  0  0  0  0  0  0
    8.2422   -2.6651    0.1679 H   0  0  0  0  0  0  0  0  0  0  0  0
  1 21  2  0  0  0  0
  2 25  1  0  0  0  0
  2 26  1  0  0  0  0
  3 24  2  0  0  0  0
  4 26  2  0  0  0  0
  5  6  1  6  0  0  0
  5 13  1  0  0  0  0
  5 28  1  0  0  0  0
  6 10  1  1  0  0  0
  6 11  1  0  0  0  0
  6 16  1  0  0  0  0
  7  5  1  1  0  0  0
  7 15  1  0  0  0  0
  7 29  1  0  0  0  0
  8  7  1  6  0  0  0
  8 12  1  0  0  0  0
  8 30  1  0  0  0  0
  9  8  1  1  0  0  0
  9 17  1  0  0  0  0
  9 19  1  0  0  0  0
  9 20  1  0  0  0  0
 10 14  1  0  0  0  0
 10 21  1  0  0  0  0
 10 31  1  1  0  0  0
 11 12  1  0  0  0  0
 11 32  1  0  0  0  0
 11 33  1  0  0  0  0
 12 34  1  0  0  0  0
 12 35  1  0  0  0  0
 13 14  1  0  0  0  0
 13 36  1  0  0  0  0
 13 37  1  0  0  0  0
 14 38  1  0  0  0  0
 14 39  1  0  0  0  0
 15 18  1  0  0  0  0
 15 40  1  0  0  0  0
 15 41  1  0  0  0  0
 16 42  1  0  0  0  0
 16 43  1  0  0  0  0
 16 44  1  0  0  0  0
 17 18  1  0  0  0  0
 17 23  2  0  0  0  0
 18 45  1  0  0  0  0
 18 46  1  0  0  0  0
 19 22  1  0  0  0  0
 19 47  1  0  0  0  0
 19 48  1  0  0  0  0
 20 49  1  0  0  0  0
 20 50  1  0  0  0  0
 20 51  1  0  0  0  0
 21 25  1  0  0  0  0
 22 24  1  0  0  0  0
 22 52  1  0  0  0  0
 22 53  1  0  0  0  0
 23 24  1  0  0  0  0
 23 54  1  0  0  0  0
 25 55  1  0  0  0  0
 25 56  1  0  0  0  0
 26 27  1  0  0  0  0
 27 57  1  0  0  0  0
 27 58  1  0  0  0  0
 27 59  1  0  0  0  0
M  END
