DB06751
 OpenBabel07062211533D

 60 62  0  0  0  0  0  0  0  0999 V2000
   -5.9770   -0.2489   -0.1265 O   0  0  0  0  0  0  0  0  0  0  0  0
   -4.3119    1.6507    1.0222 O   0  0  0  0  0  0  0  0  0  0  0  0
    4.8966    1.0582   -1.2009 O   0  0  0  0  0  0  0  0  0  0  0  0
    6.1042   -0.9046    0.3518 O   0  0  0  0  0  0  0  0  0  0  0  0
    0.0764   -1.8045   -1.3763 N   0  0  0  0  0  0  0  0  0  0  0  0
   -2.1066   -2.8250   -1.6626 C   0  0  0  0  0  0  0  0  0  0  0  0
   -2.6828   -1.6267   -0.9444 C   0  0  0  0  0  0  0  0  0  0  0  0
   -1.8212   -0.6893   -0.3259 C   0  0  0  0  0  0  0  0  0  0  0  0
   -0.7893   -2.4547   -2.3350 C   0  0  0  0  0  0  0  0  0  0  0  0
   -0.3460   -0.9044   -0.4140 C   0  0  0  0  0  0  0  0  0  0  0  0
   -4.0746   -1.4746   -0.8609 C   0  0  0  0  0  0  0  0  0  0  0  0
   -2.3992    0.4155    0.3214 C   0  0  0  0  0  0  0  0  0  0  0  0
   -4.6235   -0.3796   -0.1997 C   0  0  0  0  0  0  0  0  0  0  0  0
   -3.7875    0.5664    0.3844 C   0  0  0  0  0  0  0  0  0  0  0  0
    0.5171   -0.2955    0.4181 C   0  0  0  0  0  0  0  0  0  0  0  0
    1.9771   -0.4524    0.3980 C   0  0  0  0  0  0  0  0  0  0  0  0
    2.7576    0.3847   -0.3990 C   0  0  0  0  0  0  0  0  0  0  0  0
    2.5832   -1.4387    1.1764 C   0  0  0  0  0  0  0  0  0  0  0  0
    4.1446    0.2359   -0.4177 C   0  0  0  0  0  0  0  0  0  0  0  0
   -6.6958   -1.2967    0.5217 C   0  0  0  0  0  0  0  0  0  0  0  0
   -3.9564    2.9349    0.5145 C   0  0  0  0  0  0  0  0  0  0  0  0
    4.7508   -0.7503    0.3604 C   0  0  0  0  0  0  0  0  0  0  0  0
    3.9700   -1.5877    1.1574 C   0  0  0  0  0  0  0  0  0  0  0  0
   -7.9341   -0.7168    1.1712 C   0  0  0  0  0  0  0  0  0  0  0  0
   -5.0983    3.8971    0.7638 C   0  0  0  0  0  0  0  0  0  0  0  0
    4.3923    2.3718   -1.4337 C   0  0  0  0  0  0  0  0  0  0  0  0
    6.7082   -1.3954    1.5470 C   0  0  0  0  0  0  0  0  0  0  0  0
    5.5565    3.3220   -1.6160 C   0  0  0  0  0  0  0  0  0  0  0  0
    8.1151   -0.8461    1.6500 C   0  0  0  0  0  0  0  0  0  0  0  0
   -2.8040   -3.1971   -2.4220 H   0  0  0  0  0  0  0  0  0  0  0  0
   -1.9508   -3.6252   -0.9284 H   0  0  0  0  0  0  0  0  0  0  0  0
   -0.9667   -1.7741   -3.1764 H   0  0  0  0  0  0  0  0  0  0  0  0
   -0.3018   -3.3510   -2.7325 H   0  0  0  0  0  0  0  0  0  0  0  0
    1.0741   -1.9691   -1.4609 H   0  0  0  0  0  0  0  0  0  0  0  0
   -4.7243   -2.2115   -1.3273 H   0  0  0  0  0  0  0  0  0  0  0  0
   -1.7764    1.1752    0.7859 H   0  0  0  0  0  0  0  0  0  0  0  0
    0.1805    0.3784    1.2009 H   0  0  0  0  0  0  0  0  0  0  0  0
    2.2554    1.1236   -1.0184 H   0  0  0  0  0  0  0  0  0  0  0  0
    1.9868   -2.1024    1.7978 H   0  0  0  0  0  0  0  0  0  0  0  0
   -6.9823   -2.0452   -0.2249 H   0  0  0  0  0  0  0  0  0  0  0  0
   -6.0798   -1.7811    1.2897 H   0  0  0  0  0  0  0  0  0  0  0  0
   -3.7514    2.8907   -0.5624 H   0  0  0  0  0  0  0  0  0  0  0  0
   -3.0561    3.2846    1.0313 H   0  0  0  0  0  0  0  0  0  0  0  0
    4.3968   -2.3870    1.7560 H   0  0  0  0  0  0  0  0  0  0  0  0
   -7.6611    0.0458    1.9082 H   0  0  0  0  0  0  0  0  0  0  0  0
   -8.5669   -0.2254    0.4248 H   0  0  0  0  0  0  0  0  0  0  0  0
   -8.5166   -1.4969    1.6692 H   0  0  0  0  0  0  0  0  0  0  0  0
   -4.8541    4.8976    0.3961 H   0  0  0  0  0  0  0  0  0  0  0  0
   -5.3242    3.9589    1.8334 H   0  0  0  0  0  0  0  0  0  0  0  0
   -6.0097    3.5501    0.2658 H   0  0  0  0  0  0  0  0  0  0  0  0
    3.7738    2.3651   -2.3378 H   0  0  0  0  0  0  0  0  0  0  0  0
    3.8017    2.7416   -0.5860 H   0  0  0  0  0  0  0  0  0  0  0  0
    6.1642   -1.0716    2.4433 H   0  0  0  0  0  0  0  0  0  0  0  0
    6.7407   -2.4900    1.5116 H   0  0  0  0  0  0  0  0  0  0  0  0
    6.1922    3.3289   -0.7243 H   0  0  0  0  0  0  0  0  0  0  0  0
    6.1867    3.0031   -2.4530 H   0  0  0  0  0  0  0  0  0  0  0  0
    5.2054    4.3400   -1.8073 H   0  0  0  0  0  0  0  0  0  0  0  0
    8.7079   -1.1385    0.7769 H   0  0  0  0  0  0  0  0  0  0  0  0
    8.1010    0.2487    1.6722 H   0  0  0  0  0  0  0  0  0  0  0  0
    8.6133   -1.2112    2.5525 H   0  0  0  0  0  0  0  0  0  0  0  0
  1 13  1  0  0  0  0
  1 20  1  0  0  0  0
  2 14  1  0  0  0  0
  2 21  1  0  0  0  0
  3 19  1  0  0  0  0
  3 26  1  0  0  0  0
  4 22  1  0  0  0  0
  4 27  1  0  0  0  0
  5  9  1  0  0  0  0
  5 10  1  0  0  0  0
  5 34  1  0  0  0  0
  6  7  1  0  0  0  0
  6  9  1  0  0  0  0
  6 30  1  0  0  0  0
  6 31  1  0  0  0  0
  7  8  2  0  0  0  0
  7 11  1  0  0  0  0
  8 10  1  0  0  0  0
  8 12  1  0  0  0  0
  9 32  1  0  0  0  0
  9 33  1  0  0  0  0
 10 15  2  0  0  0  0
 11 13  2  0  0  0  0
 11 35  1  0  0  0  0
 12 14  2  0  0  0  0
 12 36  1  0  0  0  0
 13 14  1  0  0  0  0
 15 16  1  0  0  0  0
 15 37  1  0  0  0  0
 16 17  2  0  0  0  0
 16 18  1  0  0  0  0
 17 19  1  0  0  0  0
 17 38  1  0  0  0  0
 18 23  2  0  0  0  0
 18 39  1  0  0  0  0
 19 22  2  0  0  0  0
 20 24  1  0  0  0  0
 20 40  1  0  0  0  0
 20 41  1  0  0  0  0
 21 25  1  0  0  0  0
 21 42  1  0  0  0  0
 21 43  1  0  0  0  0
 22 23  1  0  0  0  0
 23 44  1  0  0  0  0
 24 45  1  0  0  0  0
 24 46  1  0  0  0  0
 24 47  1  0  0  0  0
 25 48  1  0  0  0  0
 25 49  1  0  0  0  0
 25 50  1  0  0  0  0
 26 28  1  0  0  0  0
 26 51  1  0  0  0  0
 26 52  1  0  0  0  0
 27 29  1  0  0  0  0
 27 53  1  0  0  0  0
 27 54  1  0  0  0  0
 28 55  1  0  0  0  0
 28 56  1  0  0  0  0
 28 57  1  0  0  0  0
 29 58  1  0  0  0  0
 29 59  1  0  0  0  0
 29 60  1  0  0  0  0
M  END
