DB06153
 OpenBabel07062211533D

 42 45  0  0  0  0  0  0  0  0999 V2000
   -2.0581    4.0225    0.2076 S   0  0  0  0  0  0  0  0  0  0  0  0
    3.4480   -0.6868    0.0809 N   0  0  0  0  0  0  0  0  0  0  0  0
    0.7749    0.0656   -0.7074 C   0  0  0  0  0  0  0  0  0  0  0  0
    1.9089    1.0492   -0.8052 C   0  0  0  0  0  0  0  0  0  0  0  0
    1.2074   -1.3750   -0.7398 C   0  0  0  0  0  0  0  0  0  0  0  0
   -0.5045    0.4398   -0.5708 C   0  0  0  0  0  0  0  0  0  0  0  0
    3.0014    0.7101    0.2154 C   0  0  0  0  0  0  0  0  0  0  0  0
    2.3269   -1.6211    0.2780 C   0  0  0  0  0  0  0  0  0  0  0  0
   -1.4964   -0.6685   -0.4896 C   0  0  0  0  0  0  0  0  0  0  0  0
   -0.8719    1.8363   -0.4638 C   0  0  0  0  0  0  0  0  0  0  0  0
   -2.3647   -0.7813    0.6146 C   0  0  0  0  0  0  0  0  0  0  0  0
   -2.3254    0.2200    1.7450 C   0  0  0  0  0  0  0  0  0  0  0  0
   -2.8149    1.5984    1.3006 C   0  0  0  0  0  0  0  0  0  0  0  0
   -1.8844    2.3149    0.3558 C   0  0  0  0  0  0  0  0  0  0  0  0
    4.5242   -0.9727    1.0295 C   0  0  0  0  0  0  0  0  0  0  0  0
   -0.2423    2.8958   -1.1979 C   0  0  0  0  0  0  0  0  0  0  0  0
   -1.5953   -1.6036   -1.5361 C   0  0  0  0  0  0  0  0  0  0  0  0
   -3.2937   -1.8336    0.6573 C   0  0  0  0  0  0  0  0  0  0  0  0
   -0.7887    4.1273   -0.9236 C   0  0  0  0  0  0  0  0  0  0  0  0
   -2.5236   -2.6431   -1.4792 C   0  0  0  0  0  0  0  0  0  0  0  0
   -3.3701   -2.7597   -0.3820 C   0  0  0  0  0  0  0  0  0  0  0  0
    2.3228    1.0296   -1.8209 H   0  0  0  0  0  0  0  0  0  0  0  0
    1.7040    2.0795   -0.5409 H   0  0  0  0  0  0  0  0  0  0  0  0
    0.4569   -2.1218   -0.4845 H   0  0  0  0  0  0  0  0  0  0  0  0
    1.5702   -1.6128   -1.7484 H   0  0  0  0  0  0  0  0  0  0  0  0
    3.8508    1.3834    0.0445 H   0  0  0  0  0  0  0  0  0  0  0  0
    2.6340    0.9020    1.2333 H   0  0  0  0  0  0  0  0  0  0  0  0
    2.6827   -2.6514    0.1515 H   0  0  0  0  0  0  0  0  0  0  0  0
    1.9268   -1.5381    1.2980 H   0  0  0  0  0  0  0  0  0  0  0  0
   -1.3105    0.2688    2.1600 H   0  0  0  0  0  0  0  0  0  0  0  0
   -2.9664   -0.1284    2.5650 H   0  0  0  0  0  0  0  0  0  0  0  0
   -3.8019    1.5130    0.8272 H   0  0  0  0  0  0  0  0  0  0  0  0
   -2.9449    2.2094    2.2036 H   0  0  0  0  0  0  0  0  0  0  0  0
    5.3785   -0.3099    0.8533 H   0  0  0  0  0  0  0  0  0  0  0  0
    4.8904   -1.9971    0.8983 H   0  0  0  0  0  0  0  0  0  0  0  0
    4.2024   -0.8519    2.0702 H   0  0  0  0  0  0  0  0  0  0  0  0
    0.4970    2.7901   -1.9824 H   0  0  0  0  0  0  0  0  0  0  0  0
   -0.9733   -1.5193   -2.4251 H   0  0  0  0  0  0  0  0  0  0  0  0
   -3.9713   -1.9356    1.5016 H   0  0  0  0  0  0  0  0  0  0  0  0
   -0.5195    5.0788   -1.3601 H   0  0  0  0  0  0  0  0  0  0  0  0
   -2.5909   -3.3558   -2.2960 H   0  0  0  0  0  0  0  0  0  0  0  0
   -4.0953   -3.5670   -0.3378 H   0  0  0  0  0  0  0  0  0  0  0  0
  1 14  1  0  0  0  0
  1 19  1  0  0  0  0
  2  7  1  0  0  0  0
  2  8  1  0  0  0  0
  2 15  1  0  0  0  0
  3  4  1  0  0  0  0
  3  5  1  0  0  0  0
  3  6  2  0  0  0  0
  4  7  1  0  0  0  0
  4 22  1  0  0  0  0
  4 23  1  0  0  0  0
  5  8  1  0  0  0  0
  5 24  1  0  0  0  0
  5 25  1  0  0  0  0
  6  9  1  0  0  0  0
  6 10  1  0  0  0  0
  7 26  1  0  0  0  0
  7 27  1  0  0  0  0
  8 28  1  0  0  0  0
  8 29  1  0  0  0  0
  9 11  2  0  0  0  0
  9 17  1  0  0  0  0
 10 14  2  0  0  0  0
 10 16  1  0  0  0  0
 11 12  1  0  0  0  0
 11 18  1  0  0  0  0
 12 13  1  0  0  0  0
 12 30  1  0  0  0  0
 12 31  1  0  0  0  0
 13 14  1  0  0  0  0
 13 32  1  0  0  0  0
 13 33  1  0  0  0  0
 15 34  1  0  0  0  0
 15 35  1  0  0  0  0
 15 36  1  0  0  0  0
 16 19  2  0  0  0  0
 16 37  1  0  0  0  0
 17 20  2  0  0  0  0
 17 38  1  0  0  0  0
 18 21  2  0  0  0  0
 18 39  1  0  0  0  0
 19 40  1  0  0  0  0
 20 21  1  0  0  0  0
 20 41  1  0  0  0  0
 21 42  1  0  0  0  0
M  END
