DB06448
 OpenBabel07062211533D

 67 71  0  0  1  0  0  0  0  0999 V2000
    0.8897    2.1582    2.4952 Br  0  0  0  0  0  0  0  0  0  0  0  0
    6.0216   -4.6754    2.4011 Br  0  0  0  0  0  0  0  0  0  0  0  0
    4.3343    5.8903    0.5087 Cl  0  0  0  0  0  0  0  0  0  0  0  0
   -2.3060   -2.8232   -1.8716 O   0  0  0  0  0  0  0  0  0  0  0  0
   -7.3821   -1.0771    2.3189 O   0  0  0  0  0  0  0  0  0  0  0  0
   -0.6988   -1.1458   -1.8844 N   0  0  0  0  0  0  0  0  0  0  0  0
   -5.7625    0.1333    1.1753 N   0  0  0  0  0  0  0  0  0  0  0  0
    2.9581   -1.9888    1.7270 N   0  0  0  0  0  0  0  0  0  0  0  0
   -7.9496    0.9626    1.5233 N   0  0  0  0  0  0  0  0  0  0  0  0
    1.7541   -0.2644   -0.6113 C   0  0  0  0  0  0  0  0  0  0  0  0
    2.5602    0.1026    0.6324 C   0  0  2  0  0  0  0  0  0  0  0  0
    1.2884   -1.7270   -0.5492 C   0  0  0  0  0  0  0  0  0  0  0  0
    0.5460    0.6704   -0.7753 C   0  0  0  0  0  0  0  0  0  0  0  0
    0.4195   -2.0813   -1.7538 C   0  0  0  0  0  0  0  0  0  0  0  0
   -0.3099    0.2665   -1.9746 C   0  0  0  0  0  0  0  0  0  0  0  0
   -3.6155   -0.1566   -0.7616 C   0  0  0  0  0  0  0  0  0  0  0  0
    3.0678    1.5322    0.5956 C   0  0  0  0  0  0  0  0  0  0  0  0
    3.5449   -0.9931    0.9962 C   0  0  0  0  0  0  0  0  0  0  0  0
   -3.0969   -0.6045   -2.1258 C   0  0  0  0  0  0  0  0  0  0  0  0
   -2.0049   -1.6294   -1.9502 C   0  0  0  0  0  0  0  0  0  0  0  0
   -4.1552   -1.3516    0.0374 C   0  0  0  0  0  0  0  0  0  0  0  0
   -4.7067    0.9130   -0.9154 C   0  0  0  0  0  0  0  0  0  0  0  0
    4.1432    1.9422   -0.2089 C   0  0  0  0  0  0  0  0  0  0  0  0
    4.8932   -1.0545    0.6265 C   0  0  0  0  0  0  0  0  0  0  0  0
   -4.7430   -0.9007    1.3722 C   0  0  0  0  0  0  0  0  0  0  0  0
   -5.2903    1.3150    0.4391 C   0  0  0  0  0  0  0  0  0  0  0  0
    4.9226    0.9541   -1.0298 C   0  0  0  0  0  0  0  0  0  0  0  0
    5.6810   -0.0258   -0.1459 C   0  0  0  0  0  0  0  0  0  0  0  0
    2.3974    2.5028    1.3670 C   0  0  0  0  0  0  0  0  0  0  0  0
    4.5240    3.2960   -0.2251 C   0  0  0  0  0  0  0  0  0  0  0  0
    5.6275   -2.1731    1.0718 C   0  0  0  0  0  0  0  0  0  0  0  0
    2.7857    3.8422    1.3450 C   0  0  0  0  0  0  0  0  0  0  0  0
    3.8497    4.2396    0.5466 C   0  0  0  0  0  0  0  0  0  0  0  0
   -7.0428   -0.0586    1.7075 C   0  0  0  0  0  0  0  0  0  0  0  0
    3.7029   -3.0431    2.1168 C   0  0  0  0  0  0  0  0  0  0  0  0
    5.0370   -3.1817    1.8188 C   0  0  0  0  0  0  0  0  0  0  0  0
    2.3646   -0.1682   -1.5145 H   0  0  0  0  0  0  0  0  0  0  0  0
    1.8519    0.0266    1.4616 H   0  0  0  0  0  0  0  0  0  0  0  0
    0.7059   -1.9044    0.3639 H   0  0  0  0  0  0  0  0  0  0  0  0
    2.1308   -2.4254   -0.5729 H   0  0  0  0  0  0  0  0  0  0  0  0
    0.8580    1.7096   -0.9200 H   0  0  0  0  0  0  0  0  0  0  0  0
   -0.0857    0.6243    0.1191 H   0  0  0  0  0  0  0  0  0  0  0  0
    0.0580   -3.1102   -1.6591 H   0  0  0  0  0  0  0  0  0  0  0  0
    1.0035   -2.0239   -2.6801 H   0  0  0  0  0  0  0  0  0  0  0  0
    0.2537    0.3892   -2.9071 H   0  0  0  0  0  0  0  0  0  0  0  0
   -1.1611    0.9440   -2.0185 H   0  0  0  0  0  0  0  0  0  0  0  0
   -2.7852    0.2830   -0.1922 H   0  0  0  0  0  0  0  0  0  0  0  0
   -2.8000    0.2280   -2.7662 H   0  0  0  0  0  0  0  0  0  0  0  0
   -3.9064   -1.0970   -2.6829 H   0  0  0  0  0  0  0  0  0  0  0  0
   -4.9290   -1.8711   -0.5423 H   0  0  0  0  0  0  0  0  0  0  0  0
   -3.3637   -2.0756    0.2558 H   0  0  0  0  0  0  0  0  0  0  0  0
   -4.2958    1.7993   -1.4130 H   0  0  0  0  0  0  0  0  0  0  0  0
   -5.5127    0.5281   -1.5536 H   0  0  0  0  0  0  0  0  0  0  0  0
   -3.9614   -0.4719    2.0108 H   0  0  0  0  0  0  0  0  0  0  0  0
   -5.1567   -1.7647    1.9015 H   0  0  0  0  0  0  0  0  0  0  0  0
   -6.0756    2.0528    0.2794 H   0  0  0  0  0  0  0  0  0  0  0  0
   -4.5209    1.7929    1.0574 H   0  0  0  0  0  0  0  0  0  0  0  0
    4.2838    0.4390   -1.7500 H   0  0  0  0  0  0  0  0  0  0  0  0
    5.6580    1.4932   -1.6419 H   0  0  0  0  0  0  0  0  0  0  0  0
    6.2988    0.5301    0.5728 H   0  0  0  0  0  0  0  0  0  0  0  0
    6.3755   -0.5634   -0.8065 H   0  0  0  0  0  0  0  0  0  0  0  0
    5.3618    3.6105   -0.8450 H   0  0  0  0  0  0  0  0  0  0  0  0
    6.6857   -2.2454    0.8229 H   0  0  0  0  0  0  0  0  0  0  0  0
    2.2605    4.5844    1.9429 H   0  0  0  0  0  0  0  0  0  0  0  0
    3.1635   -3.7869    2.6946 H   0  0  0  0  0  0  0  0  0  0  0  0
   -7.7514    1.8370    1.0563 H   0  0  0  0  0  0  0  0  0  0  0  0
   -8.8929    0.8710    1.8870 H   0  0  0  0  0  0  0  0  0  0  0  0
  1 29  1  0  0  0  0
  2 36  1  0  0  0  0
  3 33  1  0  0  0  0
  4 20  2  0  0  0  0
  5 34  2  0  0  0  0
  6 14  1  0  0  0  0
  6 15  1  0  0  0  0
  6 20  1  0  0  0  0
  7 25  1  0  0  0  0
  7 26  1  0  0  0  0
  7 34  1  0  0  0  0
  8 18  2  0  0  0  0
  8 35  1  0  0  0  0
  9 34  1  0  0  0  0
  9 66  1  0  0  0  0
  9 67  1  0  0  0  0
 10 11  1  0  0  0  0
 10 12  1  0  0  0  0
 10 13  1  0  0  0  0
 10 37  1  0  0  0  0
 11 17  1  0  0  0  0
 11 18  1  0  0  0  0
 11 38  1  1  0  0  0
 12 14  1  0  0  0  0
 12 39  1  0  0  0  0
 12 40  1  0  0  0  0
 13 15  1  0  0  0  0
 13 41  1  0  0  0  0
 13 42  1  0  0  0  0
 14 43  1  0  0  0  0
 14 44  1  0  0  0  0
 15 45  1  0  0  0  0
 15 46  1  0  0  0  0
 16 19  1  0  0  0  0
 16 21  1  0  0  0  0
 16 22  1  0  0  0  0
 16 47  1  0  0  0  0
 17 23  2  0  0  0  0
 17 29  1  0  0  0  0
 18 24  1  0  0  0  0
 19 20  1  0  0  0  0
 19 48  1  0  0  0  0
 19 49  1  0  0  0  0
 21 25  1  0  0  0  0
 21 50  1  0  0  0  0
 21 51  1  0  0  0  0
 22 26  1  0  0  0  0
 22 52  1  0  0  0  0
 22 53  1  0  0  0  0
 23 27  1  0  0  0  0
 23 30  1  0  0  0  0
 24 28  1  0  0  0  0
 24 31  2  0  0  0  0
 25 54  1  0  0  0  0
 25 55  1  0  0  0  0
 26 56  1  0  0  0  0
 26 57  1  0  0  0  0
 27 28  1  0  0  0  0
 27 58  1  0  0  0  0
 27 59  1  0  0  0  0
 28 60  1  0  0  0  0
 28 61  1  0  0  0  0
 29 32  2  0  0  0  0
 30 33  2  0  0  0  0
 30 62  1  0  0  0  0
 31 36  1  0  0  0  0
 31 63  1  0  0  0  0
 32 33  1  0  0  0  0
 32 64  1  0  0  0  0
 35 36  2  0  0  0  0
 35 65  1  0  0  0  0
M  END
