DB08995
 OpenBabel07062211533D

 75 79  0  0  1  0  0  0  0  0999 V2000
    3.2317    0.2821    0.8257 O   0  0  0  0  0  0  0  0  0  0  0  0
    0.6791   -3.9773    0.7779 O   0  0  0  0  0  0  0  0  0  0  0  0
    1.3006   -1.6873    0.7481 O   0  0  0  0  0  0  0  0  0  0  0  0
    5.2421   -2.4100   -0.6317 O   0  0  0  0  0  0  0  0  0  0  0  0
    7.1745   -0.3132   -0.1574 O   0  0  0  0  0  0  0  0  0  0  0  0
    3.5350    2.5923    0.9501 O   0  0  0  0  0  0  0  0  0  0  0  0
    5.9355    2.3343   -0.5263 O   0  0  0  0  0  0  0  0  0  0  0  0
   -1.7197   -3.1573    2.1321 O   0  0  0  0  0  0  0  0  0  0  0  0
   -2.9076   -2.1176   -0.1597 O   0  0  0  0  0  0  0  0  0  0  0  0
   -1.5575   -3.6718   -2.1365 O   0  0  0  0  0  0  0  0  0  0  0  0
   -1.1753    2.6027    0.3435 O   0  0  0  0  0  0  0  0  0  0  0  0
    1.4538    6.5507   -0.6544 O   0  0  0  0  0  0  0  0  0  0  0  0
   -1.1506    6.4629   -0.9594 O   0  0  0  0  0  0  0  0  0  0  0  0
   -6.9808    0.0887    0.4230 O   0  0  0  0  0  0  0  0  0  0  0  0
   -4.8372   -0.3301    2.1409 O   0  0  0  0  0  0  0  0  0  0  0  0
    3.4902   -0.9336    0.1213 C   0  0  1  0  0  0  0  0  0  0  0  0
    4.9893   -1.2417    0.1444 C   0  0  2  0  0  0  0  0  0  0  0  0
    5.7923   -0.0724   -0.4258 C   0  0  1  0  0  0  0  0  0  0  0  0
    5.3727    1.2511    0.2137 C   0  0  2  0  0  0  0  0  0  0  0  0
   -0.9780   -2.2704    1.2932 C   0  0  1  0  0  0  0  0  0  0  0  0
    0.4909   -2.6839    1.3624 C   0  0  1  0  0  0  0  0  0  0  0  0
   -1.5011   -2.3505   -0.1420 C   0  0  1  0  0  0  0  0  0  0  0  0
   -1.2098   -3.7208   -0.7549 C   0  0  2  0  0  0  0  0  0  0  0  0
    3.8524    1.4109    0.2147 C   0  0  1  0  0  0  0  0  0  0  0  0
    0.2771   -4.0659   -0.5929 C   0  0  2  0  0  0  0  0  0  0  0  0
    2.6767   -2.0358    0.7921 C   0  0  0  0  0  0  0  0  0  0  0  0
    0.5886   -5.4857   -1.0578 C   0  0  0  0  0  0  0  0  0  0  0  0
    2.4023    3.2552    0.5807 C   0  0  0  0  0  0  0  0  0  0  0  0
    1.1672    2.6091    0.6407 C   0  0  0  0  0  0  0  0  0  0  0  0
    2.4800    4.5788    0.1447 C   0  0  0  0  0  0  0  0  0  0  0  0
    0.0094    3.2900    0.2638 C   0  0  0  0  0  0  0  0  0  0  0  0
    1.3237    5.2619   -0.2334 C   0  0  0  0  0  0  0  0  0  0  0  0
    0.0892    4.6117   -0.1718 C   0  0  0  0  0  0  0  0  0  0  0  0
   -1.1471    5.3050   -0.5650 C   0  0  0  0  0  0  0  0  0  0  0  0
   -2.3435    3.2560   -0.0183 C   0  0  0  0  0  0  0  0  0  0  0  0
   -2.3955    4.5231   -0.4588 C   0  0  0  0  0  0  0  0  0  0  0  0
   -3.5575    2.4235    0.0997 C   0  0  0  0  0  0  0  0  0  0  0  0
   -3.6324    1.4258    1.0746 C   0  0  0  0  0  0  0  0  0  0  0  0
   -4.6367    2.6303   -0.7633 C   0  0  0  0  0  0  0  0  0  0  0  0
   -4.7793    0.6398    1.1863 C   0  0  0  0  0  0  0  0  0  0  0  0
   -5.7835    1.8440   -0.6517 C   0  0  0  0  0  0  0  0  0  0  0  0
   -5.8548    0.8489    0.3231 C   0  0  0  0  0  0  0  0  0  0  0  0
   -7.0233   -1.1110   -0.3469 C   0  0  0  0  0  0  0  0  0  0  0  0
    3.1254   -0.8240   -0.9091 H   0  0  0  0  0  0  0  0  0  0  0  0
    5.3249   -1.4492    1.1679 H   0  0  0  0  0  0  0  0  0  0  0  0
    5.6929   -0.0180   -1.5169 H   0  0  0  0  0  0  0  0  0  0  0  0
    5.7718    1.3170    1.2334 H   0  0  0  0  0  0  0  0  0  0  0  0
   -1.1256   -1.2566    1.6812 H   0  0  0  0  0  0  0  0  0  0  0  0
    0.7827   -2.7724    2.4162 H   0  0  0  0  0  0  0  0  0  0  0  0
   -1.0407   -1.5620   -0.7502 H   0  0  0  0  0  0  0  0  0  0  0  0
   -1.8477   -4.4779   -0.2827 H   0  0  0  0  0  0  0  0  0  0  0  0
    3.4928    1.5181   -0.8197 H   0  0  0  0  0  0  0  0  0  0  0  0
    0.8886   -3.3836   -1.1970 H   0  0  0  0  0  0  0  0  0  0  0  0
    2.9783   -2.1341    1.8422 H   0  0  0  0  0  0  0  0  0  0  0  0
    2.8524   -2.9877    0.2807 H   0  0  0  0  0  0  0  0  0  0  0  0
    0.3878   -5.6189   -2.1245 H   0  0  0  0  0  0  0  0  0  0  0  0
    0.0012   -6.2190   -0.4942 H   0  0  0  0  0  0  0  0  0  0  0  0
    1.6429   -5.7218   -0.8754 H   0  0  0  0  0  0  0  0  0  0  0  0
    4.9401   -2.2383   -1.5400 H   0  0  0  0  0  0  0  0  0  0  0  0
    7.4061   -1.1652   -0.5654 H   0  0  0  0  0  0  0  0  0  0  0  0
    5.6408    3.1595   -0.1042 H   0  0  0  0  0  0  0  0  0  0  0  0
   -1.4804   -4.0705    1.9004 H   0  0  0  0  0  0  0  0  0  0  0  0
   -3.2035   -2.1898   -1.0833 H   0  0  0  0  0  0  0  0  0  0  0  0
   -1.5274   -4.5794   -2.4825 H   0  0  0  0  0  0  0  0  0  0  0  0
    1.0871    1.5855    0.9943 H   0  0  0  0  0  0  0  0  0  0  0  0
    3.4459    5.0764    0.0992 H   0  0  0  0  0  0  0  0  0  0  0  0
   -3.3114    5.0355   -0.7292 H   0  0  0  0  0  0  0  0  0  0  0  0
    0.5891    6.9212   -0.8885 H   0  0  0  0  0  0  0  0  0  0  0  0
   -2.8079    1.2502    1.7621 H   0  0  0  0  0  0  0  0  0  0  0  0
   -4.6121    3.3802   -1.5494 H   0  0  0  0  0  0  0  0  0  0  0  0
   -6.6163    2.0095   -1.3299 H   0  0  0  0  0  0  0  0  0  0  0  0
   -5.7136   -0.7502    2.1026 H   0  0  0  0  0  0  0  0  0  0  0  0
   -7.9630   -1.6255   -0.1281 H   0  0  0  0  0  0  0  0  0  0  0  0
   -6.9920   -0.8789   -1.4161 H   0  0  0  0  0  0  0  0  0  0  0  0
   -6.1923   -1.7727   -0.0828 H   0  0  0  0  0  0  0  0  0  0  0  0
  1 16  1  0  0  0  0
  1 24  1  0  0  0  0
  2 21  1  0  0  0  0
  2 25  1  0  0  0  0
  3 21  1  0  0  0  0
  3 26  1  0  0  0  0
  4 17  1  0  0  0  0
  4 59  1  0  0  0  0
  5 18  1  0  0  0  0
  5 60  1  0  0  0  0
  6 24  1  0  0  0  0
  6 28  1  0  0  0  0
  7 19  1  0  0  0  0
  7 61  1  0  0  0  0
  8 20  1  0  0  0  0
  8 62  1  0  0  0  0
  9 22  1  0  0  0  0
  9 63  1  0  0  0  0
 10 23  1  0  0  0  0
 10 64  1  0  0  0  0
 11 31  1  0  0  0  0
 11 35  1  0  0  0  0
 12 32  1  0  0  0  0
 12 68  1  0  0  0  0
 13 34  2  0  0  0  0
 14 42  1  0  0  0  0
 14 43  1  0  0  0  0
 15 40  1  0  0  0  0
 15 72  1  0  0  0  0
 16 17  1  1  0  0  0
 16 26  1  0  0  0  0
 16 44  1  0  0  0  0
 17 18  1  6  0  0  0
 17 45  1  0  0  0  0
 18 19  1  1  0  0  0
 18 46  1  0  0  0  0
 19 24  1  1  0  0  0
 19 47  1  0  0  0  0
 20 21  1  1  0  0  0
 20 48  1  0  0  0  0
 21 49  1  1  0  0  0
 22 20  1  1  0  0  0
 22 50  1  0  0  0  0
 23 22  1  1  0  0  0
 23 51  1  0  0  0  0
 24 52  1  6  0  0  0
 25 23  1  6  0  0  0
 25 27  1  0  0  0  0
 25 53  1  0  0  0  0
 26 54  1  0  0  0  0
 26 55  1  0  0  0  0
 27 56  1  0  0  0  0
 27 57  1  0  0  0  0
 27 58  1  0  0  0  0
 28 29  2  0  0  0  0
 28 30  1  0  0  0  0
 29 31  1  0  0  0  0
 29 65  1  0  0  0  0
 30 32  2  0  0  0  0
 30 66  1  0  0  0  0
 31 33  2  0  0  0  0
 32 33  1  0  0  0  0
 33 34  1  0  0  0  0
 34 36  1  0  0  0  0
 35 36  2  0  0  0  0
 35 37  1  0  0  0  0
 36 67  1  0  0  0  0
 37 38  2  0  0  0  0
 37 39  1  0  0  0  0
 38 40  1  0  0  0  0
 38 69  1  0  0  0  0
 39 41  2  0  0  0  0
 39 70  1  0  0  0  0
 40 42  2  0  0  0  0
 41 42  1  0  0  0  0
 41 71  1  0  0  0  0
 43 73  1  0  0  0  0
 43 74  1  0  0  0  0
 43 75  1  0  0  0  0
M  END
