DB08329
 OpenBabel07062211533D

 32 33  0  0  0  0  0  0  0  0999 V2000
    2.0768   -1.1943    0.9042 S   0  0  0  0  0  0  0  0  0  0  0  0
   -4.7135   -0.4206    0.3115 S   0  0  0  0  0  0  0  0  0  0  0  0
    2.1587   -0.5973    2.2237 O   0  0  0  0  0  0  0  0  0  0  0  0
    1.5836   -2.5480    0.7352 O   0  0  0  0  0  0  0  0  0  0  0  0
   -5.1724   -1.6148   -0.3844 O   0  0  0  0  0  0  0  0  0  0  0  0
   -5.0767   -0.2121    1.7063 O   0  0  0  0  0  0  0  0  0  0  0  0
    1.2342   -0.1289   -0.1648 N   0  0  0  0  0  0  0  0  0  0  0  0
   -5.1807    0.9551   -0.5880 N   0  0  0  0  0  0  0  0  0  0  0  0
    4.1659    0.3236   -0.0149 C   0  0  0  0  0  0  0  0  0  0  0  0
    3.6896   -1.1119    0.1524 C   0  0  0  0  0  0  0  0  0  0  0  0
    3.2192    1.1453   -0.8893 C   0  0  0  0  0  0  0  0  0  0  0  0
    1.8137    1.2400   -0.3013 C   0  0  0  0  0  0  0  0  0  0  0  0
   -0.2060   -0.1992   -0.0496 C   0  0  0  0  0  0  0  0  0  0  0  0
   -0.8450    0.4390    1.0079 C   0  0  0  0  0  0  0  0  0  0  0  0
   -0.9395   -0.9049   -0.9974 C   0  0  0  0  0  0  0  0  0  0  0  0
   -2.9755   -0.3353    0.1719 C   0  0  0  0  0  0  0  0  0  0  0  0
   -2.2338    0.3708    1.1192 C   0  0  0  0  0  0  0  0  0  0  0  0
   -2.3284   -0.9732   -0.8864 C   0  0  0  0  0  0  0  0  0  0  0  0
    4.2645    0.8034    0.9663 H   0  0  0  0  0  0  0  0  0  0  0  0
    5.1629    0.3196   -0.4702 H   0  0  0  0  0  0  0  0  0  0  0  0
    3.6298   -1.6248   -0.8131 H   0  0  0  0  0  0  0  0  0  0  0  0
    4.3730   -1.6723    0.7978 H   0  0  0  0  0  0  0  0  0  0  0  0
    3.6266    2.1560   -1.0075 H   0  0  0  0  0  0  0  0  0  0  0  0
    3.1715    0.6996   -1.8909 H   0  0  0  0  0  0  0  0  0  0  0  0
    1.8300    1.7475    0.6699 H   0  0  0  0  0  0  0  0  0  0  0  0
    1.1895    1.8357   -0.9781 H   0  0  0  0  0  0  0  0  0  0  0  0
   -0.2833    0.9922    1.7555 H   0  0  0  0  0  0  0  0  0  0  0  0
   -0.4426   -1.4034   -1.8253 H   0  0  0  0  0  0  0  0  0  0  0  0
   -2.7174    0.8798    1.9483 H   0  0  0  0  0  0  0  0  0  0  0  0
   -2.8862   -1.5231   -1.6390 H   0  0  0  0  0  0  0  0  0  0  0  0
   -5.5605    1.7569   -0.0701 H   0  0  0  0  0  0  0  0  0  0  0  0
   -5.6281    0.7993   -1.4995 H   0  0  0  0  0  0  0  0  0  0  0  0
  1  3  2  0  0  0  0
  1  4  2  0  0  0  0
  1  7  1  0  0  0  0
  1 10  1  0  0  0  0
  2  5  2  0  0  0  0
  2  6  2  0  0  0  0
  2  8  1  0  0  0  0
  2 16  1  0  0  0  0
  7 12  1  0  0  0  0
  7 13  1  0  0  0  0
  8 31  1  0  0  0  0
  8 32  1  0  0  0  0
  9 10  1  0  0  0  0
  9 11  1  0  0  0  0
  9 19  1  0  0  0  0
  9 20  1  0  0  0  0
 10 21  1  0  0  0  0
 10 22  1  0  0  0  0
 11 12  1  0  0  0  0
 11 23  1  0  0  0  0
 11 24  1  0  0  0  0
 12 25  1  0  0  0  0
 12 26  1  0  0  0  0
 13 14  2  0  0  0  0
 13 15  1  0  0  0  0
 14 17  1  0  0  0  0
 14 27  1  0  0  0  0
 15 18  2  0  0  0  0
 15 28  1  0  0  0  0
 16 17  2  0  0  0  0
 16 18  1  0  0  0  0
 17 29  1  0  0  0  0
 18 30  1  0  0  0  0
M  END
