DB08932
 OpenBabel07062211533D

 52 54  0  0  0  0  0  0  0  0999 V2000
   -0.0715   -4.6511    1.8928 Br  0  0  0  0  0  0  0  0  0  0  0  0
    9.0483   -2.6010   -0.3592 Br  0  0  0  0  0  0  0  0  0  0  0  0
   -4.4756    1.8277    1.0472 S   0  0  0  0  0  0  0  0  0  0  0  0
    1.5367    1.4270   -0.2975 O   0  0  0  0  0  0  0  0  0  0  0  0
   -5.4480    1.2929    1.9835 O   0  0  0  0  0  0  0  0  0  0  0  0
   -4.5137    3.2349    0.6951 O   0  0  0  0  0  0  0  0  0  0  0  0
    4.2662    0.8880    0.0072 O   0  0  0  0  0  0  0  0  0  0  0  0
   -4.5665    0.9126   -0.4107 N   0  0  0  0  0  0  0  0  0  0  0  0
   -2.9047    1.4098    1.6259 N   0  0  0  0  0  0  0  0  0  0  0  0
   -1.9321    3.3559    0.7282 N   0  0  0  0  0  0  0  0  0  0  0  0
    0.2793    3.3592   -0.2292 N   0  0  0  0  0  0  0  0  0  0  0  0
    5.8511   -0.1528   -1.3133 N   0  0  0  0  0  0  0  0  0  0  0  0
    5.8588   -0.3931    1.0845 N   0  0  0  0  0  0  0  0  0  0  0  0
   -4.7785   -0.5464   -0.2938 C   0  0  0  0  0  0  0  0  0  0  0  0
   -0.6421    1.3248    0.6687 C   0  0  0  0  0  0  0  0  0  0  0  0
   -1.7789    2.0401    0.9847 C   0  0  0  0  0  0  0  0  0  0  0  0
   -4.8212   -1.1886   -1.6749 C   0  0  0  0  0  0  0  0  0  0  0  0
   -0.5074   -0.0866    0.9578 C   0  0  0  0  0  0  0  0  0  0  0  0
    0.3648    2.0435    0.0567 C   0  0  0  0  0  0  0  0  0  0  0  0
   -5.0539   -2.6919   -1.6180 C   0  0  0  0  0  0  0  0  0  0  0  0
   -0.9105   -1.0332    0.0158 C   0  0  0  0  0  0  0  0  0  0  0  0
    0.0257   -0.5007    2.1785 C   0  0  0  0  0  0  0  0  0  0  0  0
    2.5225    2.2390   -0.9235 C   0  0  0  0  0  0  0  0  0  0  0  0
   -0.7808   -2.3937    0.2946 C   0  0  0  0  0  0  0  0  0  0  0  0
    0.1554   -1.8612    2.4573 C   0  0  0  0  0  0  0  0  0  0  0  0
   -0.8796    3.9444    0.1288 C   0  0  0  0  0  0  0  0  0  0  0  0
    3.7468    1.3933   -1.2170 C   0  0  0  0  0  0  0  0  0  0  0  0
   -0.2478   -2.8077    1.5154 C   0  0  0  0  0  0  0  0  0  0  0  0
    5.3697    0.0805   -0.0776 C   0  0  0  0  0  0  0  0  0  0  0  0
    6.9390   -0.9495   -1.3595 C   0  0  0  0  0  0  0  0  0  0  0  0
    6.9463   -1.1824    0.9647 C   0  0  0  0  0  0  0  0  0  0  0  0
    7.5354   -1.4982   -0.2428 C   0  0  0  0  0  0  0  0  0  0  0  0
   -5.7209   -0.7337    0.2312 H   0  0  0  0  0  0  0  0  0  0  0  0
   -3.9619   -0.9853    0.2879 H   0  0  0  0  0  0  0  0  0  0  0  0
   -3.8798   -0.9926   -2.2028 H   0  0  0  0  0  0  0  0  0  0  0  0
   -5.6156   -0.7251   -2.2724 H   0  0  0  0  0  0  0  0  0  0  0  0
   -3.9101    1.1912   -1.1517 H   0  0  0  0  0  0  0  0  0  0  0  0
   -2.7717    0.4438    1.9480 H   0  0  0  0  0  0  0  0  0  0  0  0
   -4.2538   -3.1893   -1.0605 H   0  0  0  0  0  0  0  0  0  0  0  0
   -6.0070   -2.9214   -1.1310 H   0  0  0  0  0  0  0  0  0  0  0  0
   -5.0772   -3.1112   -2.6286 H   0  0  0  0  0  0  0  0  0  0  0  0
   -1.3289   -0.7270   -0.9401 H   0  0  0  0  0  0  0  0  0  0  0  0
    0.3449    0.2243    2.9236 H   0  0  0  0  0  0  0  0  0  0  0  0
    2.8079    3.0537   -0.2462 H   0  0  0  0  0  0  0  0  0  0  0  0
    2.1355    2.6510   -1.8630 H   0  0  0  0  0  0  0  0  0  0  0  0
   -1.1012   -3.1180   -0.4499 H   0  0  0  0  0  0  0  0  0  0  0  0
    0.5728   -2.1673    3.4131 H   0  0  0  0  0  0  0  0  0  0  0  0
   -0.9759    5.0008   -0.0894 H   0  0  0  0  0  0  0  0  0  0  0  0
    3.4539    0.5552   -1.8617 H   0  0  0  0  0  0  0  0  0  0  0  0
    4.4989    2.0096   -1.7234 H   0  0  0  0  0  0  0  0  0  0  0  0
    7.3214   -1.1333   -2.3588 H   0  0  0  0  0  0  0  0  0  0  0  0
    7.3354   -1.5607    1.9050 H   0  0  0  0  0  0  0  0  0  0  0  0
  1 28  1  0  0  0  0
  2 32  1  0  0  0  0
  3  5  2  0  0  0  0
  3  6  2  0  0  0  0
  3  8  1  0  0  0  0
  3  9  1  0  0  0  0
  4 19  1  0  0  0  0
  4 23  1  0  0  0  0
  7 27  1  0  0  0  0
  7 29  1  0  0  0  0
  8 14  1  0  0  0  0
  8 37  1  0  0  0  0
  9 16  1  0  0  0  0
  9 38  1  0  0  0  0
 10 16  2  0  0  0  0
 10 26  1  0  0  0  0
 11 19  1  0  0  0  0
 11 26  2  0  0  0  0
 12 29  2  0  0  0  0
 12 30  1  0  0  0  0
 13 29  1  0  0  0  0
 13 31  2  0  0  0  0
 14 17  1  0  0  0  0
 14 33  1  0  0  0  0
 14 34  1  0  0  0  0
 15 16  1  0  0  0  0
 15 18  1  0  0  0  0
 15 19  2  0  0  0  0
 17 20  1  0  0  0  0
 17 35  1  0  0  0  0
 17 36  1  0  0  0  0
 18 21  2  0  0  0  0
 18 22  1  0  0  0  0
 20 39  1  0  0  0  0
 20 40  1  0  0  0  0
 20 41  1  0  0  0  0
 21 24  1  0  0  0  0
 21 42  1  0  0  0  0
 22 25  2  0  0  0  0
 22 43  1  0  0  0  0
 23 27  1  0  0  0  0
 23 44  1  0  0  0  0
 23 45  1  0  0  0  0
 24 28  2  0  0  0  0
 24 46  1  0  0  0  0
 25 28  1  0  0  0  0
 25 47  1  0  0  0  0
 26 48  1  0  0  0  0
 27 49  1  0  0  0  0
 27 50  1  0  0  0  0
 30 32  2  0  0  0  0
 30 51  1  0  0  0  0
 31 32  1  0  0  0  0
 31 52  1  0  0  0  0
M  END
