DB08958
 OpenBabel07062211533D

 69 69  0  0  1  0  0  0  0  0999 V2000
    1.0576    1.2966    0.0880 N   0  0  0  0  0  0  0  0  0  0  0  0
   -1.3636    1.0797   -0.1130 N   0  0  0  0  0  0  0  0  0  0  0  0
   -0.1920    3.8242   -2.3818 N   0  0  0  0  0  0  0  0  0  0  0  0
   -0.1299    2.5146   -1.7187 C   0  0  1  0  0  0  0  0  0  0  0  0
    1.0571    2.5210   -0.7296 C   0  0  0  0  0  0  0  0  0  0  0  0
   -1.4453    2.2967   -0.9379 C   0  0  0  0  0  0  0  0  0  0  0  0
   -0.2192    1.1618    0.8125 C   0  0  0  0  0  0  0  0  0  0  0  0
    2.1833    1.3030    1.0216 C   0  0  0  0  0  0  0  0  0  0  0  0
   -2.6102    0.8739    0.6235 C   0  0  0  0  0  0  0  0  0  0  0  0
    2.5126   -0.0917    1.5957 C   0  0  1  0  0  0  0  0  0  0  0  0
   -3.7462    0.2902   -0.2435 C   0  0  1  0  0  0  0  0  0  0  0  0
    0.0570    1.4347   -2.8024 C   0  0  0  0  0  0  0  0  0  0  0  0
    2.8245   -1.1490    0.5086 C   0  0  0  0  0  0  0  0  0  0  0  0
   -3.3818   -1.0571   -0.9134 C   0  0  0  0  0  0  0  0  0  0  0  0
    3.6796   -0.0682    2.6118 C   0  0  0  0  0  0  0  0  0  0  0  0
   -5.0718    0.1127    0.5351 C   0  0  0  0  0  0  0  0  0  0  0  0
    4.0667   -0.8903   -0.3522 C   0  0  0  0  0  0  0  0  0  0  0  0
   -3.1073   -2.2322    0.0325 C   0  0  0  0  0  0  0  0  0  0  0  0
    3.4957    0.9370    3.7404 C   0  0  0  0  0  0  0  0  0  0  0  0
   -5.5447    1.3736    1.2451 C   0  0  0  0  0  0  0  0  0  0  0  0
    4.2654   -1.9229   -1.4620 C   0  0  0  0  0  0  0  0  0  0  0  0
   -2.6666   -3.5059   -0.6894 C   0  0  0  0  0  0  0  0  0  0  0  0
    5.5613   -1.6790   -2.2202 C   0  0  0  0  0  0  0  0  0  0  0  0
   -2.5048   -4.6654    0.2819 C   0  0  0  0  0  0  0  0  0  0  0  0
    1.9977    2.5909   -1.2922 H   0  0  0  0  0  0  0  0  0  0  0  0
    1.0054    3.4051   -0.0777 H   0  0  0  0  0  0  0  0  0  0  0  0
   -1.6518    3.1695   -0.3013 H   0  0  0  0  0  0  0  0  0  0  0  0
   -2.2707    2.2229   -1.6558 H   0  0  0  0  0  0  0  0  0  0  0  0
   -0.3571    1.9871    1.5255 H   0  0  0  0  0  0  0  0  0  0  0  0
   -0.2039    0.2298    1.3861 H   0  0  0  0  0  0  0  0  0  0  0  0
    3.0848    1.6766    0.5194 H   0  0  0  0  0  0  0  0  0  0  0  0
    1.9804    2.0150    1.8308 H   0  0  0  0  0  0  0  0  0  0  0  0
   -2.4458    0.1806    1.4583 H   0  0  0  0  0  0  0  0  0  0  0  0
   -2.9217    1.8178    1.0870 H   0  0  0  0  0  0  0  0  0  0  0  0
    1.6400   -0.4556    2.1524 H   0  0  0  0  0  0  0  0  0  0  0  0
   -3.9616    0.9997   -1.0528 H   0  0  0  0  0  0  0  0  0  0  0  0
   -0.7736    1.4468   -3.5180 H   0  0  0  0  0  0  0  0  0  0  0  0
    0.9829    1.5966   -3.3669 H   0  0  0  0  0  0  0  0  0  0  0  0
    0.1066    0.4264   -2.3776 H   0  0  0  0  0  0  0  0  0  0  0  0
    1.9527   -1.2507   -0.1501 H   0  0  0  0  0  0  0  0  0  0  0  0
    2.9389   -2.1267    0.9957 H   0  0  0  0  0  0  0  0  0  0  0  0
   -4.1980   -1.3418   -1.5910 H   0  0  0  0  0  0  0  0  0  0  0  0
   -2.5054   -0.9092   -1.5571 H   0  0  0  0  0  0  0  0  0  0  0  0
   -0.2920    4.5629   -1.6864 H   0  0  0  0  0  0  0  0  0  0  0  0
    0.6859    4.0085   -2.8662 H   0  0  0  0  0  0  0  0  0  0  0  0
    3.7976   -1.0681    3.0470 H   0  0  0  0  0  0  0  0  0  0  0  0
    4.6233    0.1771    2.1135 H   0  0  0  0  0  0  0  0  0  0  0  0
   -5.8553   -0.2148   -0.1594 H   0  0  0  0  0  0  0  0  0  0  0  0
   -4.9732   -0.6675    1.2969 H   0  0  0  0  0  0  0  0  0  0  0  0
    4.9608   -0.8931    0.2803 H   0  0  0  0  0  0  0  0  0  0  0  0
    4.0019    0.1024   -0.8110 H   0  0  0  0  0  0  0  0  0  0  0  0
   -4.0107   -2.4614    0.6077 H   0  0  0  0  0  0  0  0  0  0  0  0
   -2.3298   -1.9567    0.7534 H   0  0  0  0  0  0  0  0  0  0  0  0
    3.5810    1.9671    3.3825 H   0  0  0  0  0  0  0  0  0  0  0  0
    4.2725    0.7921    4.4985 H   0  0  0  0  0  0  0  0  0  0  0  0
    2.5229    0.8116    4.2257 H   0  0  0  0  0  0  0  0  0  0  0  0
   -4.9009    1.6264    2.0925 H   0  0  0  0  0  0  0  0  0  0  0  0
   -6.5549    1.2222    1.6398 H   0  0  0  0  0  0  0  0  0  0  0  0
   -5.5746    2.2253    0.5586 H   0  0  0  0  0  0  0  0  0  0  0  0
    3.4211   -1.8844   -2.1598 H   0  0  0  0  0  0  0  0  0  0  0  0
    4.2861   -2.9309   -1.0318 H   0  0  0  0  0  0  0  0  0  0  0  0
   -1.7173   -3.3287   -1.2077 H   0  0  0  0  0  0  0  0  0  0  0  0
   -3.4075   -3.7766   -1.4504 H   0  0  0  0  0  0  0  0  0  0  0  0
    6.4265   -1.7487   -1.5531 H   0  0  0  0  0  0  0  0  0  0  0  0
    5.6825   -2.4247   -3.0120 H   0  0  0  0  0  0  0  0  0  0  0  0
    5.5634   -0.6875   -2.6841 H   0  0  0  0  0  0  0  0  0  0  0  0
   -3.4494   -4.8893    0.7879 H   0  0  0  0  0  0  0  0  0  0  0  0
   -2.1849   -5.5652   -0.2529 H   0  0  0  0  0  0  0  0  0  0  0  0
   -1.7522   -4.4370    1.0432 H   0  0  0  0  0  0  0  0  0  0  0  0
  1  5  1  0  0  0  0
  1  7  1  0  0  0  0
  1  8  1  0  0  0  0
  2  6  1  0  0  0  0
  2  7  1  0  0  0  0
  2  9  1  0  0  0  0
  3 44  1  0  0  0  0
  3 45  1  0  0  0  0
  4  3  1  6  0  0  0
  4  5  1  0  0  0  0
  4  6  1  0  0  0  0
  4 12  1  0  0  0  0
  5 25  1  0  0  0  0
  5 26  1  0  0  0  0
  6 27  1  0  0  0  0
  6 28  1  0  0  0  0
  7 29  1  0  0  0  0
  7 30  1  0  0  0  0
  8 10  1  0  0  0  0
  8 31  1  0  0  0  0
  8 32  1  0  0  0  0
  9 11  1  0  0  0  0
  9 33  1  0  0  0  0
  9 34  1  0  0  0  0
 10 13  1  0  0  0  0
 10 15  1  0  0  0  0
 10 35  1  1  0  0  0
 11 14  1  0  0  0  0
 11 16  1  0  0  0  0
 11 36  1  6  0  0  0
 12 37  1  0  0  0  0
 12 38  1  0  0  0  0
 12 39  1  0  0  0  0
 13 17  1  0  0  0  0
 13 40  1  0  0  0  0
 13 41  1  0  0  0  0
 14 18  1  0  0  0  0
 14 42  1  0  0  0  0
 14 43  1  0  0  0  0
 15 19  1  0  0  0  0
 15 46  1  0  0  0  0
 15 47  1  0  0  0  0
 16 20  1  0  0  0  0
 16 48  1  0  0  0  0
 16 49  1  0  0  0  0
 17 21  1  0  0  0  0
 17 50  1  0  0  0  0
 17 51  1  0  0  0  0
 18 22  1  0  0  0  0
 18 52  1  0  0  0  0
 18 53  1  0  0  0  0
 19 54  1  0  0  0  0
 19 55  1  0  0  0  0
 19 56  1  0  0  0  0
 20 57  1  0  0  0  0
 20 58  1  0  0  0  0
 20 59  1  0  0  0  0
 21 23  1  0  0  0  0
 21 60  1  0  0  0  0
 21 61  1  0  0  0  0
 22 24  1  0  0  0  0
 22 62  1  0  0  0  0
 22 63  1  0  0  0  0
 23 64  1  0  0  0  0
 23 65  1  0  0  0  0
 23 66  1  0  0  0  0
 24 67  1  0  0  0  0
 24 68  1  0  0  0  0
 24 69  1  0  0  0  0
M  END
