DB08897
 OpenBabel07062211533D

 63 67  0  0  1  0  0  0  0  0999 V2000
   -0.7474    3.5000   -0.6991 S   0  0  0  0  0  0  0  0  0  0  0  0
   -5.3303    3.4727   -0.0217 S   0  0  0  0  0  0  0  0  0  0  0  0
   -2.4692   -0.1325   -0.6124 O   0  0  0  0  0  0  0  0  0  0  0  0
    3.9470    0.4636    0.7931 O   0  0  0  0  0  0  0  0  0  0  0  0
   -2.4281    0.5055   -2.8227 O   0  0  0  0  0  0  0  0  0  0  0  0
   -3.1790    2.9804   -2.2415 O   0  0  0  0  0  0  0  0  0  0  0  0
    0.0840   -2.4052    0.0318 N   0  3  2  0  0  0  0  0  0  0  0  0
   -2.4928   -2.4807    0.0089 C   0  0  1  0  0  0  0  0  0  0  0  0
   -0.4499   -1.3861   -0.9900 C   0  0  0  0  0  0  0  0  0  0  0  0
   -0.3893   -3.8134   -0.3595 C   0  0  0  0  0  0  0  0  0  0  0  0
   -0.4526   -2.0563    1.4262 C   0  0  0  0  0  0  0  0  0  0  0  0
   -1.9814   -1.4207   -0.9782 C   0  0  2  0  0  0  0  0  0  0  0  0
   -1.9179   -3.8382   -0.4068 C   0  0  0  0  0  0  0  0  0  0  0  0
   -1.9776   -2.1564    1.4186 C   0  0  0  0  0  0  0  0  0  0  0  0
    1.6044   -2.3638    0.0454 C   0  0  0  0  0  0  0  0  0  0  0  0
    2.0611   -0.9591    0.4002 C   0  0  0  0  0  0  0  0  0  0  0  0
    3.5787   -0.8710    0.4733 C   0  0  0  0  0  0  0  0  0  0  0  0
   -2.6529    0.7530   -1.6436 C   0  0  0  0  0  0  0  0  0  0  0  0
   -3.1425    2.1006   -1.1125 C   0  0  0  0  0  0  0  0  0  0  0  0
   -2.1147    2.6495   -0.1164 C   0  0  0  0  0  0  0  0  0  0  0  0
   -4.5658    2.0348   -0.5512 C   0  0  0  0  0  0  0  0  0  0  0  0
    5.1585    0.9004    0.3236 C   0  0  0  0  0  0  0  0  0  0  0  0
   -2.1200    2.5587    1.2581 C   0  0  0  0  0  0  0  0  0  0  0  0
   -5.3757    0.9314   -0.3960 C   0  0  0  0  0  0  0  0  0  0  0  0
    6.2051   -0.0045    0.1455 C   0  0  0  0  0  0  0  0  0  0  0  0
    5.3450    2.2500    0.0242 C   0  0  0  0  0  0  0  0  0  0  0  0
   -0.9867    3.1960    1.8406 C   0  0  0  0  0  0  0  0  0  0  0  0
   -6.6407    1.2711    0.1648 C   0  0  0  0  0  0  0  0  0  0  0  0
   -0.1583    3.7494    0.8893 C   0  0  0  0  0  0  0  0  0  0  0  0
   -6.7493    2.6209    0.4170 C   0  0  0  0  0  0  0  0  0  0  0  0
    7.4381    0.4401   -0.3316 C   0  0  0  0  0  0  0  0  0  0  0  0
    6.5781    2.6947   -0.4530 C   0  0  0  0  0  0  0  0  0  0  0  0
    7.6245    1.7895   -0.6308 C   0  0  0  0  0  0  0  0  0  0  0  0
   -3.5882   -2.5033    0.0164 H   0  0  0  0  0  0  0  0  0  0  0  0
   -0.1107   -0.3842   -0.7249 H   0  0  0  0  0  0  0  0  0  0  0  0
   -0.0499   -1.6701   -1.9696 H   0  0  0  0  0  0  0  0  0  0  0  0
    0.0010   -4.5133    0.3881 H   0  0  0  0  0  0  0  0  0  0  0  0
    0.0446   -4.0530   -1.3369 H   0  0  0  0  0  0  0  0  0  0  0  0
   -0.1861   -1.0265    1.6722 H   0  0  0  0  0  0  0  0  0  0  0  0
   -0.0019   -2.7432    2.1506 H   0  0  0  0  0  0  0  0  0  0  0  0
   -2.3486   -1.6909   -1.9772 H   0  0  0  0  0  0  0  0  0  0  0  0
   -2.2921   -4.6300    0.2534 H   0  0  0  0  0  0  0  0  0  0  0  0
   -2.2523   -4.1009   -1.4178 H   0  0  0  0  0  0  0  0  0  0  0  0
   -2.2969   -2.9346    2.1229 H   0  0  0  0  0  0  0  0  0  0  0  0
   -2.4149   -1.2203    1.7865 H   0  0  0  0  0  0  0  0  0  0  0  0
    1.9551   -2.6591   -0.9502 H   0  0  0  0  0  0  0  0  0  0  0  0
    1.9510   -3.0999    0.7799 H   0  0  0  0  0  0  0  0  0  0  0  0
    1.7617   -0.2139   -0.3412 H   0  0  0  0  0  0  0  0  0  0  0  0
    1.6903   -0.6108    1.3669 H   0  0  0  0  0  0  0  0  0  0  0  0
    3.9574   -1.5436    1.2518 H   0  0  0  0  0  0  0  0  0  0  0  0
    3.9801   -1.1795   -0.5011 H   0  0  0  0  0  0  0  0  0  0  0  0
   -2.2751    3.0684   -2.5902 H   0  0  0  0  0  0  0  0  0  0  0  0
   -2.8866    2.0531    1.8312 H   0  0  0  0  0  0  0  0  0  0  0  0
   -5.1003   -0.0783   -0.6700 H   0  0  0  0  0  0  0  0  0  0  0  0
    6.1106   -1.0578    0.3924 H   0  0  0  0  0  0  0  0  0  0  0  0
    4.5332    2.9593    0.1608 H   0  0  0  0  0  0  0  0  0  0  0  0
   -0.7873    3.2433    2.9033 H   0  0  0  0  0  0  0  0  0  0  0  0
   -7.4314    0.5616    0.3715 H   0  0  0  0  0  0  0  0  0  0  0  0
    0.7654    4.2870    1.0508 H   0  0  0  0  0  0  0  0  0  0  0  0
   -7.5942    3.1477    0.8376 H   0  0  0  0  0  0  0  0  0  0  0  0
    8.2554   -0.2629   -0.4643 H   0  0  0  0  0  0  0  0  0  0  0  0
    6.7234    3.7455   -0.6857 H   0  0  0  0  0  0  0  0  0  0  0  0
    8.5850    2.1361   -1.0009 H   0  0  0  0  0  0  0  0  0  0  0  0
  1 20  1  0  0  0  0
  1 29  1  0  0  0  0
  2 21  1  0  0  0  0
  2 30  1  0  0  0  0
  3 12  1  0  0  0  0
  3 18  1  0  0  0  0
  4 17  1  0  0  0  0
  4 22  1  0  0  0  0
  5 18  2  0  0  0  0
  6 19  1  0  0  0  0
  6 52  1  0  0  0  0
  7  9  1  0  0  0  0
  7 10  1  0  0  0  0
  7 11  1  0  0  0  0
  7 15  1  1  0  0  0
  8 13  1  0  0  0  0
  8 14  1  0  0  0  0
  8 34  1  6  0  0  0
  9 12  1  0  0  0  0
  9 35  1  0  0  0  0
  9 36  1  0  0  0  0
 10 13  1  0  0  0  0
 10 37  1  0  0  0  0
 10 38  1  0  0  0  0
 11 14  1  0  0  0  0
 11 39  1  0  0  0  0
 11 40  1  0  0  0  0
 12  8  1  1  0  0  0
 12 41  1  0  0  0  0
 13 42  1  0  0  0  0
 13 43  1  0  0  0  0
 14 44  1  0  0  0  0
 14 45  1  0  0  0  0
 15 16  1  0  0  0  0
 15 46  1  0  0  0  0
 15 47  1  0  0  0  0
 16 17  1  0  0  0  0
 16 48  1  0  0  0  0
 16 49  1  0  0  0  0
 17 50  1  0  0  0  0
 17 51  1  0  0  0  0
 18 19  1  0  0  0  0
 19 20  1  0  0  0  0
 19 21  1  0  0  0  0
 20 23  2  0  0  0  0
 21 24  2  0  0  0  0
 22 25  2  0  0  0  0
 22 26  1  0  0  0  0
 23 27  1  0  0  0  0
 23 53  1  0  0  0  0
 24 28  1  0  0  0  0
 24 54  1  0  0  0  0
 25 31  1  0  0  0  0
 25 55  1  0  0  0  0
 26 32  2  0  0  0  0
 26 56  1  0  0  0  0
 27 29  2  0  0  0  0
 27 57  1  0  0  0  0
 28 30  2  0  0  0  0
 28 58  1  0  0  0  0
 29 59  1  0  0  0  0
 30 60  1  0  0  0  0
 31 33  2  0  0  0  0
 31 61  1  0  0  0  0
 32 33  1  0  0  0  0
 32 62  1  0  0  0  0
 33 63  1  0  0  0  0
M  CHG  1   7   1
M  END
