DB08439
 OpenBabel07062211533D

 44 46  0  0  0  0  0  0  0  0999 V2000
   -2.7476    2.9177   -0.3561 S   0  0  0  0  0  0  0  0  0  0  0  0
    4.9683    0.5695    0.2956 O   0  0  0  0  0  0  0  0  0  0  0  0
   -2.8016    3.6350   -1.6151 O   0  0  0  0  0  0  0  0  0  0  0  0
   -3.0613    3.5905    0.8896 O   0  0  0  0  0  0  0  0  0  0  0  0
   -3.9025    0.9842    1.8037 O   0  0  0  0  0  0  0  0  0  0  0  0
   -3.6823    1.4907   -0.4783 N   0  0  0  0  0  0  0  0  0  0  0  0
    4.5476   -0.7529    0.2237 N   0  0  0  0  0  0  0  0  0  0  0  0
    2.7530    0.6362    0.0934 C   0  0  0  0  0  0  0  0  0  0  0  0
    1.4306    1.1856   -0.0146 C   0  0  0  0  0  0  0  0  0  0  0  0
   -1.1195    2.2429   -0.2231 C   0  0  0  0  0  0  0  0  0  0  0  0
    3.2187   -0.6868    0.1031 C   0  0  0  0  0  0  0  0  0  0  0  0
    3.8884    1.3883    0.2169 C   0  0  0  0  0  0  0  0  0  0  0  0
    0.6776    1.4223    1.1354 C   0  0  0  0  0  0  0  0  0  0  0  0
    0.8986    1.4820   -1.2696 C   0  0  0  0  0  0  0  0  0  0  0  0
   -0.6076    1.9544    1.0301 C   0  0  0  0  0  0  0  0  0  0  0  0
   -0.3859    2.0154   -1.3747 C   0  0  0  0  0  0  0  0  0  0  0  0
    2.4398   -1.8937    0.0011 C   0  0  0  0  0  0  0  0  0  0  0  0
    4.1662    2.8307    0.2785 C   0  0  0  0  0  0  0  0  0  0  0  0
    2.1754   -2.4448   -1.2505 C   0  0  0  0  0  0  0  0  0  0  0  0
    1.9536   -2.5050    1.1543 C   0  0  0  0  0  0  0  0  0  0  0  0
   -4.1190    0.6974    0.6311 C   0  0  0  0  0  0  0  0  0  0  0  0
   -4.8547   -0.5587    0.2308 C   0  0  0  0  0  0  0  0  0  0  0  0
    1.4203   -3.6136   -1.3496 C   0  0  0  0  0  0  0  0  0  0  0  0
    1.1997   -3.6745    1.0554 C   0  0  0  0  0  0  0  0  0  0  0  0
    0.9328   -4.2288   -0.1966 C   0  0  0  0  0  0  0  0  0  0  0  0
   -3.8926   -1.7263    0.1207 C   0  0  0  0  0  0  0  0  0  0  0  0
    1.0766    1.1952    2.1213 H   0  0  0  0  0  0  0  0  0  0  0  0
    1.4716    1.3012   -2.1761 H   0  0  0  0  0  0  0  0  0  0  0  0
   -1.1798    2.1266    1.9363 H   0  0  0  0  0  0  0  0  0  0  0  0
   -0.7842    2.2313   -2.3611 H   0  0  0  0  0  0  0  0  0  0  0  0
   -3.9396    1.1886   -1.4269 H   0  0  0  0  0  0  0  0  0  0  0  0
    5.2376    3.0295    0.3828 H   0  0  0  0  0  0  0  0  0  0  0  0
    3.8194    3.3285   -0.6324 H   0  0  0  0  0  0  0  0  0  0  0  0
    3.6558    3.2846    1.1338 H   0  0  0  0  0  0  0  0  0  0  0  0
    2.5480   -1.9772   -2.1587 H   0  0  0  0  0  0  0  0  0  0  0  0
    2.1516   -2.0848    2.1376 H   0  0  0  0  0  0  0  0  0  0  0  0
   -5.3802   -0.4013   -0.7169 H   0  0  0  0  0  0  0  0  0  0  0  0
   -5.6147   -0.7667    0.9919 H   0  0  0  0  0  0  0  0  0  0  0  0
    1.2122   -4.0447   -2.3244 H   0  0  0  0  0  0  0  0  0  0  0  0
    0.8194   -4.1531    1.9531 H   0  0  0  0  0  0  0  0  0  0  0  0
    0.3450   -5.1389   -0.2736 H   0  0  0  0  0  0  0  0  0  0  0  0
   -3.3734   -1.8985    1.0694 H   0  0  0  0  0  0  0  0  0  0  0  0
   -4.4299   -2.6408   -0.1479 H   0  0  0  0  0  0  0  0  0  0  0  0
   -3.1314   -1.5374   -0.6437 H   0  0  0  0  0  0  0  0  0  0  0  0
  1  3  2  0  0  0  0
  1  4  2  0  0  0  0
  1  6  1  0  0  0  0
  1 10  1  0  0  0  0
  2  7  1  0  0  0  0
  2 12  1  0  0  0  0
  5 21  2  0  0  0  0
  6 21  1  0  0  0  0
  6 31  1  0  0  0  0
  7 11  2  0  0  0  0
  8  9  1  0  0  0  0
  8 11  1  0  0  0  0
  8 12  2  0  0  0  0
  9 13  2  0  0  0  0
  9 14  1  0  0  0  0
 10 15  2  0  0  0  0
 10 16  1  0  0  0  0
 11 17  1  0  0  0  0
 12 18  1  0  0  0  0
 13 15  1  0  0  0  0
 13 27  1  0  0  0  0
 14 16  2  0  0  0  0
 14 28  1  0  0  0  0
 15 29  1  0  0  0  0
 16 30  1  0  0  0  0
 17 19  2  0  0  0  0
 17 20  1  0  0  0  0
 18 32  1  0  0  0  0
 18 33  1  0  0  0  0
 18 34  1  0  0  0  0
 19 23  1  0  0  0  0
 19 35  1  0  0  0  0
 20 24  2  0  0  0  0
 20 36  1  0  0  0  0
 21 22  1  0  0  0  0
 22 26  1  0  0  0  0
 22 37  1  0  0  0  0
 22 38  1  0  0  0  0
 23 25  2  0  0  0  0
 23 39  1  0  0  0  0
 24 25  1  0  0  0  0
 24 40  1  0  0  0  0
 25 41  1  0  0  0  0
 26 42  1  0  0  0  0
 26 43  1  0  0  0  0
 26 44  1  0  0  0  0
M  END
