DB08893
 OpenBabel07062211533D

 52 54  0  0  1  0  0  0  0  0999 V2000
    9.6911    1.1719    1.0829 S   0  0  0  0  0  0  0  0  0  0  0  0
   -6.1343   -1.7149    0.2643 O   0  0  0  0  0  0  0  0  0  0  0  0
    5.1955    0.3286    0.8575 O   0  0  0  0  0  0  0  0  0  0  0  0
   -3.3559   -1.1591    0.7774 N   0  0  0  0  0  0  0  0  0  0  0  0
    4.3221   -1.0814   -0.8105 N   0  0  0  0  0  0  0  0  0  0  0  0
    7.8486    1.7745   -0.6273 N   0  0  0  0  0  0  0  0  0  0  0  0
    9.2745    3.5585   -0.0147 N   0  0  0  0  0  0  0  0  0  0  0  0
   -1.9908   -0.9318    0.3149 C   0  0  0  0  0  0  0  0  0  0  0  0
   -4.2634   -0.1646    0.2238 C   0  0  0  0  0  0  0  0  0  0  0  0
   -1.0214   -1.9792    0.8810 C   0  0  0  0  0  0  0  0  0  0  0  0
   -5.7026   -0.4218    0.6865 C   0  0  1  0  0  0  0  0  0  0  0  0
    0.3824   -1.7424    0.4369 C   0  0  0  0  0  0  0  0  0  0  0  0
   -6.6588    0.6043    0.1192 C   0  0  0  0  0  0  0  0  0  0  0  0
    1.2282   -0.9342    1.1967 C   0  0  0  0  0  0  0  0  0  0  0  0
    0.8499   -2.3303   -0.7385 C   0  0  0  0  0  0  0  0  0  0  0  0
    3.0087   -1.3017   -0.3943 C   0  0  0  0  0  0  0  0  0  0  0  0
    2.5413   -0.7139    0.7811 C   0  0  0  0  0  0  0  0  0  0  0  0
    2.1629   -2.1098   -1.1543 C   0  0  0  0  0  0  0  0  0  0  0  0
   -6.9160    1.7814    0.8220 C   0  0  0  0  0  0  0  0  0  0  0  0
   -7.2836    0.3730   -1.1062 C   0  0  0  0  0  0  0  0  0  0  0  0
   -7.7979    2.7273    0.2993 C   0  0  0  0  0  0  0  0  0  0  0  0
   -8.1654    1.3190   -1.6291 C   0  0  0  0  0  0  0  0  0  0  0  0
   -8.4226    2.4960   -0.9262 C   0  0  0  0  0  0  0  0  0  0  0  0
    5.3138   -0.3063   -0.1857 C   0  0  0  0  0  0  0  0  0  0  0  0
    6.6124   -0.3368   -0.9800 C   0  0  0  0  0  0  0  0  0  0  0  0
    7.7102    0.4355   -0.3184 C   0  0  0  0  0  0  0  0  0  0  0  0
    8.6168   -0.0705    0.5893 C   0  0  0  0  0  0  0  0  0  0  0  0
    8.8611    2.2650    0.0529 C   0  0  0  0  0  0  0  0  0  0  0  0
   -1.6575    0.0704    0.6142 H   0  0  0  0  0  0  0  0  0  0  0  0
   -1.9587   -0.9715   -0.7814 H   0  0  0  0  0  0  0  0  0  0  0  0
   -3.9528    0.8446    0.5223 H   0  0  0  0  0  0  0  0  0  0  0  0
   -4.2245   -0.2172   -0.8721 H   0  0  0  0  0  0  0  0  0  0  0  0
   -1.3409   -2.9857    0.5791 H   0  0  0  0  0  0  0  0  0  0  0  0
   -1.0643   -1.9751    1.9784 H   0  0  0  0  0  0  0  0  0  0  0  0
   -5.7663   -0.4076    1.7818 H   0  0  0  0  0  0  0  0  0  0  0  0
   -3.3851   -1.1259    1.7960 H   0  0  0  0  0  0  0  0  0  0  0  0
    0.8742   -0.4695    2.1134 H   0  0  0  0  0  0  0  0  0  0  0  0
    0.2004   -2.9604   -1.3403 H   0  0  0  0  0  0  0  0  0  0  0  0
    3.1340   -0.0767    1.4221 H   0  0  0  0  0  0  0  0  0  0  0  0
    2.5136   -2.5738   -2.0727 H   0  0  0  0  0  0  0  0  0  0  0  0
   -6.4339    1.9735    1.7768 H   0  0  0  0  0  0  0  0  0  0  0  0
   -7.0910   -0.5284   -1.6813 H   0  0  0  0  0  0  0  0  0  0  0  0
   -5.4943   -2.3610    0.6087 H   0  0  0  0  0  0  0  0  0  0  0  0
    4.5851   -1.5451   -1.6777 H   0  0  0  0  0  0  0  0  0  0  0  0
   -7.9977    3.6442    0.8461 H   0  0  0  0  0  0  0  0  0  0  0  0
   -8.6493    1.1408   -2.5848 H   0  0  0  0  0  0  0  0  0  0  0  0
   -9.1085    3.2330   -1.3338 H   0  0  0  0  0  0  0  0  0  0  0  0
    6.4184    0.0799   -1.9756 H   0  0  0  0  0  0  0  0  0  0  0  0
    6.9187   -1.3815   -1.1119 H   0  0  0  0  0  0  0  0  0  0  0  0
    8.6993   -1.0766    0.9759 H   0  0  0  0  0  0  0  0  0  0  0  0
   10.0625    3.8968    0.5277 H   0  0  0  0  0  0  0  0  0  0  0  0
    8.8121    4.2367   -0.6111 H   0  0  0  0  0  0  0  0  0  0  0  0
  1 27  1  0  0  0  0
  1 28  1  0  0  0  0
  2 11  1  0  0  0  0
  2 43  1  0  0  0  0
  3 24  2  0  0  0  0
  4  8  1  0  0  0  0
  4  9  1  0  0  0  0
  4 36  1  0  0  0  0
  5 16  1  0  0  0  0
  5 24  1  0  0  0  0
  5 44  1  0  0  0  0
  6 26  1  0  0  0  0
  6 28  2  0  0  0  0
  7 28  1  0  0  0  0
  7 51  1  0  0  0  0
  7 52  1  0  0  0  0
  8 10  1  0  0  0  0
  8 29  1  0  0  0  0
  8 30  1  0  0  0  0
  9 11  1  0  0  0  0
  9 31  1  0  0  0  0
  9 32  1  0  0  0  0
 10 12  1  0  0  0  0
 10 33  1  0  0  0  0
 10 34  1  0  0  0  0
 11 13  1  0  0  0  0
 11 35  1  1  0  0  0
 12 14  2  0  0  0  0
 12 15  1  0  0  0  0
 13 19  2  0  0  0  0
 13 20  1  0  0  0  0
 14 17  1  0  0  0  0
 14 37  1  0  0  0  0
 15 18  2  0  0  0  0
 15 38  1  0  0  0  0
 16 17  2  0  0  0  0
 16 18  1  0  0  0  0
 17 39  1  0  0  0  0
 18 40  1  0  0  0  0
 19 21  1  0  0  0  0
 19 41  1  0  0  0  0
 20 22  2  0  0  0  0
 20 42  1  0  0  0  0
 21 23  2  0  0  0  0
 21 45  1  0  0  0  0
 22 23  1  0  0  0  0
 22 46  1  0  0  0  0
 23 47  1  0  0  0  0
 24 25  1  0  0  0  0
 25 26  1  0  0  0  0
 25 48  1  0  0  0  0
 25 49  1  0  0  0  0
 26 27  2  0  0  0  0
 27 50  1  0  0  0  0
M  END
