DB08950
 OpenBabel07062211533D

 51 54  0  0  1  0  0  0  0  0999 V2000
   -4.7906    1.1809    1.4883 O   0  0  0  0  0  0  0  0  0  0  0  0
    0.4913    2.0294   -0.1440 N   0  0  0  0  0  0  0  0  0  0  0  0
   -3.0460    1.0245   -0.0312 N   0  0  0  0  0  0  0  0  0  0  0  0
    6.0267    0.2749   -0.5538 N   0  0  0  0  0  0  0  0  0  0  0  0
   -2.4003    2.2681    0.3255 C   0  0  2  0  0  0  0  0  0  0  0  0
   -1.7059    2.8964   -0.8849 C   0  0  0  0  0  0  0  0  0  0  0  0
   -1.3941    2.0621    1.4601 C   0  0  0  0  0  0  0  0  0  0  0  0
   -0.4349    2.1375   -1.2791 C   0  0  0  0  0  0  0  0  0  0  0  0
   -0.1331    1.3314    0.9877 C   0  0  0  0  0  0  0  0  0  0  0  0
    1.7212    1.3492   -0.5496 C   0  0  0  0  0  0  0  0  0  0  0  0
    2.7131    1.2721    0.6116 C   0  0  0  0  0  0  0  0  0  0  0  0
    3.9949    0.5927    0.2004 C   0  0  0  0  0  0  0  0  0  0  0  0
    4.2518   -0.7859    0.2837 C   0  0  0  0  0  0  0  0  0  0  0  0
   -4.2030    0.5823    0.5911 C   0  0  0  0  0  0  0  0  0  0  0  0
    5.0789    1.2322   -0.3099 C   0  0  0  0  0  0  0  0  0  0  0  0
    5.5492   -0.9670   -0.2007 C   0  0  0  0  0  0  0  0  0  0  0  0
   -4.7276   -0.7284    0.1287 C   0  0  0  0  0  0  0  0  0  0  0  0
    3.5268   -1.9131    0.7184 C   0  0  0  0  0  0  0  0  0  0  0  0
    6.1599   -2.2240   -0.2724 C   0  0  0  0  0  0  0  0  0  0  0  0
    4.1250   -3.1768    0.6526 C   0  0  0  0  0  0  0  0  0  0  0  0
    5.4214   -3.3276    0.1645 C   0  0  0  0  0  0  0  0  0  0  0  0
   -5.4749   -1.4922    1.0011 C   0  0  0  0  0  0  0  0  0  0  0  0
   -4.4503   -1.1398   -1.1583 C   0  0  0  0  0  0  0  0  0  0  0  0
   -5.9670   -2.7231    0.5667 C   0  0  0  0  0  0  0  0  0  0  0  0
   -4.9425   -2.3706   -1.5927 C   0  0  0  0  0  0  0  0  0  0  0  0
   -5.7009   -3.1622   -0.7301 C   0  0  0  0  0  0  0  0  0  0  0  0
   -3.1810    2.9554    0.6740 H   0  0  0  0  0  0  0  0  0  0  0  0
   -1.4402    3.9346   -0.6460 H   0  0  0  0  0  0  0  0  0  0  0  0
   -2.3895    2.9321   -1.7418 H   0  0  0  0  0  0  0  0  0  0  0  0
   -1.8519    1.5030    2.2852 H   0  0  0  0  0  0  0  0  0  0  0  0
   -1.1070    3.0424    1.8634 H   0  0  0  0  0  0  0  0  0  0  0  0
   -0.6920    1.1463   -1.6736 H   0  0  0  0  0  0  0  0  0  0  0  0
    0.0467    2.6906   -2.0950 H   0  0  0  0  0  0  0  0  0  0  0  0
    0.5150    1.3147    1.8675 H   0  0  0  0  0  0  0  0  0  0  0  0
   -0.3728    0.2916    0.7304 H   0  0  0  0  0  0  0  0  0  0  0  0
    1.5057    0.3397   -0.9263 H   0  0  0  0  0  0  0  0  0  0  0  0
    2.1874    1.9020   -1.3759 H   0  0  0  0  0  0  0  0  0  0  0  0
    2.3283    0.7000    1.4609 H   0  0  0  0  0  0  0  0  0  0  0  0
    2.9397    2.2801    0.9835 H   0  0  0  0  0  0  0  0  0  0  0  0
   -2.5546    0.4194   -0.6796 H   0  0  0  0  0  0  0  0  0  0  0  0
    5.2775    2.2724   -0.5275 H   0  0  0  0  0  0  0  0  0  0  0  0
    6.9445    0.4533   -0.9377 H   0  0  0  0  0  0  0  0  0  0  0  0
    2.5145   -1.8141    1.1000 H   0  0  0  0  0  0  0  0  0  0  0  0
    7.1692   -2.3425   -0.6523 H   0  0  0  0  0  0  0  0  0  0  0  0
    3.5702   -4.0498    0.9860 H   0  0  0  0  0  0  0  0  0  0  0  0
    5.8666   -4.3184    0.1220 H   0  0  0  0  0  0  0  0  0  0  0  0
   -5.6866   -1.1672    2.0154 H   0  0  0  0  0  0  0  0  0  0  0  0
   -3.8945   -0.5392   -1.8708 H   0  0  0  0  0  0  0  0  0  0  0  0
   -6.5568   -3.3400    1.2385 H   0  0  0  0  0  0  0  0  0  0  0  0
   -4.7424   -2.7095   -2.6049 H   0  0  0  0  0  0  0  0  0  0  0  0
   -6.0854   -4.1198   -1.0688 H   0  0  0  0  0  0  0  0  0  0  0  0
  1 14  2  0  0  0  0
  2  8  1  0  0  0  0
  2  9  1  0  0  0  0
  2 10  1  0  0  0  0
  3  5  1  0  0  0  0
  3 14  1  0  0  0  0
  3 40  1  0  0  0  0
  4 15  1  0  0  0  0
  4 16  2  0  0  0  0
  4 42  1  0  0  0  0
  5  6  1  0  0  0  0
  5  7  1  0  0  0  0
  5 27  1  1  0  0  0
  6  8  1  0  0  0  0
  6 28  1  0  0  0  0
  6 29  1  0  0  0  0
  7  9  1  0  0  0  0
  7 30  1  0  0  0  0
  7 31  1  0  0  0  0
  8 32  1  0  0  0  0
  8 33  1  0  0  0  0
  9 34  1  0  0  0  0
  9 35  1  0  0  0  0
 10 11  1  0  0  0  0
 10 36  1  0  0  0  0
 10 37  1  0  0  0  0
 11 12  1  0  0  0  0
 11 38  1  0  0  0  0
 11 39  1  0  0  0  0
 12 13  2  0  0  0  0
 12 15  1  0  0  0  0
 13 16  1  0  0  0  0
 13 18  1  0  0  0  0
 14 17  1  0  0  0  0
 15 41  1  0  0  0  0
 16 19  1  0  0  0  0
 17 22  2  0  0  0  0
 17 23  1  0  0  0  0
 18 20  2  0  0  0  0
 18 43  1  0  0  0  0
 19 21  2  0  0  0  0
 19 44  1  0  0  0  0
 20 21  1  0  0  0  0
 20 45  1  0  0  0  0
 21 46  1  0  0  0  0
 22 24  1  0  0  0  0
 22 47  1  0  0  0  0
 23 25  2  0  0  0  0
 23 48  1  0  0  0  0
 24 26  2  0  0  0  0
 24 49  1  0  0  0  0
 25 26  1  0  0  0  0
 25 50  1  0  0  0  0
 26 51  1  0  0  0  0
M  END
