DB08976
 OpenBabel07062211533D

 46 48  0  0  1  0  0  0  0  0999 V2000
   -7.3261   -2.6106    0.1144 F   0  0  0  0  0  0  0  0  0  0  0  0
   -7.3640   -0.4425    0.0740 F   0  0  0  0  0  0  0  0  0  0  0  0
   -6.7928   -1.5505   -1.7078 F   0  0  0  0  0  0  0  0  0  0  0  0
    3.2544    0.2033    0.0203 O   0  0  0  0  0  0  0  0  0  0  0  0
    6.0590    0.1174   -0.3260 O   0  0  0  0  0  0  0  0  0  0  0  0
    7.4071   -2.2251    0.2934 O   0  0  0  0  0  0  0  0  0  0  0  0
    1.3713   -0.4348   -1.1398 O   0  0  0  0  0  0  0  0  0  0  0  0
   -0.8505    0.6592    0.0788 N   0  0  0  0  0  0  0  0  0  0  0  0
   -4.8786    0.5514   -1.0950 N   0  0  0  0  0  0  0  0  0  0  0  0
   -3.0431   -0.4573    0.0968 C   0  0  0  0  0  0  0  0  0  0  0  0
   -2.2120    0.5982   -0.3022 C   0  0  0  0  0  0  0  0  0  0  0  0
   -4.3882   -0.4406   -0.3281 C   0  0  0  0  0  0  0  0  0  0  0  0
   -5.2133   -1.4893    0.0685 C   0  0  0  0  0  0  0  0  0  0  0  0
    0.0229    1.7353    0.3107 C   0  0  0  0  0  0  0  0  0  0  0  0
   -2.5648   -1.5087    0.8970 C   0  0  0  0  0  0  0  0  0  0  0  0
    1.3965    1.6161    0.0760 C   0  0  0  0  0  0  0  0  0  0  0  0
   -2.7145    1.6218   -1.0925 C   0  0  0  0  0  0  0  0  0  0  0  0
   -4.7380   -2.5347    0.8641 C   0  0  0  0  0  0  0  0  0  0  0  0
   -3.4121   -2.5448    1.2791 C   0  0  0  0  0  0  0  0  0  0  0  0
    5.3405   -1.0127    0.1740 C   0  0  1  0  0  0  0  0  0  0  0  0
    3.9285   -0.9878   -0.3997 C   0  0  0  0  0  0  0  0  0  0  0  0
   -6.6498   -1.5227   -0.3530 C   0  0  0  0  0  0  0  0  0  0  0  0
   -0.4916    2.9468    0.7837 C   0  0  0  0  0  0  0  0  0  0  0  0
   -4.0435    1.5516   -1.4584 C   0  0  0  0  0  0  0  0  0  0  0  0
    2.2465    2.6968    0.3117 C   0  0  0  0  0  0  0  0  0  0  0  0
    1.9699    0.3699   -0.4169 C   0  0  0  0  0  0  0  0  0  0  0  0
    0.3582    4.0275    1.0193 C   0  0  0  0  0  0  0  0  0  0  0  0
    6.0905   -2.2699   -0.2465 C   0  0  0  0  0  0  0  0  0  0  0  0
    1.7273    3.9025    0.7834 C   0  0  0  0  0  0  0  0  0  0  0  0
   -0.4018   -0.2495    0.1263 H   0  0  0  0  0  0  0  0  0  0  0  0
   -1.5382   -1.5484    1.2504 H   0  0  0  0  0  0  0  0  0  0  0  0
   -2.1073    2.4454   -1.4502 H   0  0  0  0  0  0  0  0  0  0  0  0
   -5.3868   -3.3503    1.1711 H   0  0  0  0  0  0  0  0  0  0  0  0
   -3.0396   -3.3544    1.8993 H   0  0  0  0  0  0  0  0  0  0  0  0
    5.3241   -0.9089    1.2640 H   0  0  0  0  0  0  0  0  0  0  0  0
    3.9643   -0.9925   -1.4959 H   0  0  0  0  0  0  0  0  0  0  0  0
    3.3648   -1.8606   -0.0506 H   0  0  0  0  0  0  0  0  0  0  0  0
   -1.5488    3.0693    1.0032 H   0  0  0  0  0  0  0  0  0  0  0  0
   -4.4903    2.3196   -2.0813 H   0  0  0  0  0  0  0  0  0  0  0  0
    3.3156    2.6381    0.1250 H   0  0  0  0  0  0  0  0  0  0  0  0
    6.1824   -2.3302   -1.3361 H   0  0  0  0  0  0  0  0  0  0  0  0
    5.5898   -3.1694    0.1248 H   0  0  0  0  0  0  0  0  0  0  0  0
   -0.0449    4.9647    1.3916 H   0  0  0  0  0  0  0  0  0  0  0  0
    2.3884    4.7448    0.9652 H   0  0  0  0  0  0  0  0  0  0  0  0
    6.0803    0.0550   -1.2963 H   0  0  0  0  0  0  0  0  0  0  0  0
    7.8586   -3.0385    0.0103 H   0  0  0  0  0  0  0  0  0  0  0  0
  1 22  1  0  0  0  0
  2 22  1  0  0  0  0
  3 22  1  0  0  0  0
  4 21  1  0  0  0  0
  4 26  1  0  0  0  0
  5 20  1  0  0  0  0
  5 45  1  0  0  0  0
  6 28  1  0  0  0  0
  6 46  1  0  0  0  0
  7 26  2  0  0  0  0
  8 11  1  0  0  0  0
  8 14  1  0  0  0  0
  8 30  1  0  0  0  0
  9 12  2  0  0  0  0
  9 24  1  0  0  0  0
 10 11  2  0  0  0  0
 10 12  1  0  0  0  0
 10 15  1  0  0  0  0
 11 17  1  0  0  0  0
 12 13  1  0  0  0  0
 13 18  2  0  0  0  0
 13 22  1  0  0  0  0
 14 16  2  0  0  0  0
 14 23  1  0  0  0  0
 15 19  2  0  0  0  0
 15 31  1  0  0  0  0
 16 25  1  0  0  0  0
 16 26  1  0  0  0  0
 17 24  2  0  0  0  0
 17 32  1  0  0  0  0
 18 19  1  0  0  0  0
 18 33  1  0  0  0  0
 19 34  1  0  0  0  0
 20 21  1  0  0  0  0
 20 28  1  0  0  0  0
 20 35  1  1  0  0  0
 21 36  1  0  0  0  0
 21 37  1  0  0  0  0
 23 27  2  0  0  0  0
 23 38  1  0  0  0  0
 24 39  1  0  0  0  0
 25 29  2  0  0  0  0
 25 40  1  0  0  0  0
 27 29  1  0  0  0  0
 27 43  1  0  0  0  0
 28 41  1  0  0  0  0
 28 42  1  0  0  0  0
 29 44  1  0  0  0  0
M  END
