DB08910
 OpenBabel07062211533D

 31 33  0  0  1  0  0  0  0  0999 V2000
   -1.5367    0.2488   -2.4204 O   0  0  0  0  0  0  0  0  0  0  0  0
    0.7480   -2.3171   -0.2302 O   0  0  0  0  0  0  0  0  0  0  0  0
   -0.3589    2.1667    0.0954 O   0  0  0  0  0  0  0  0  0  0  0  0
   -5.6341    0.4453   -0.3286 O   0  0  0  0  0  0  0  0  0  0  0  0
   -0.2160   -0.1777   -0.0783 N   0  0  0  0  0  0  0  0  0  0  0  0
   -3.5611    0.3616   -1.3324 N   0  0  0  0  0  0  0  0  0  0  0  0
    3.7051   -2.1180   -0.1386 N   0  0  0  0  0  0  0  0  0  0  0  0
   -1.6122   -0.5215   -0.1299 C   0  0  1  0  0  0  0  0  0  0  0  0
   -2.3469   -0.0296    1.1068 C   0  0  0  0  0  0  0  0  0  0  0  0
   -3.8183   -0.3846    0.9934 C   0  0  0  0  0  0  0  0  0  0  0  0
   -2.1957    0.0846   -1.3937 C   0  0  0  0  0  0  0  0  0  0  0  0
    0.8030   -1.1052   -0.1311 C   0  0  0  0  0  0  0  0  0  0  0  0
    0.2507    1.1154    0.0296 C   0  0  0  0  0  0  0  0  0  0  0  0
    2.0429   -0.3349   -0.0387 C   0  0  0  0  0  0  0  0  0  0  0  0
    1.7089    1.0079    0.0585 C   0  0  0  0  0  0  0  0  0  0  0  0
   -4.4313    0.1936   -0.2598 C   0  0  0  0  0  0  0  0  0  0  0  0
    3.3547   -0.7626   -0.0405 C   0  0  0  0  0  0  0  0  0  0  0  0
    2.6689    1.9936    0.1590 C   0  0  0  0  0  0  0  0  0  0  0  0
    4.3447    0.2189    0.0610 C   0  0  0  0  0  0  0  0  0  0  0  0
    4.0052    1.5836    0.1600 C   0  0  0  0  0  0  0  0  0  0  0  0
   -1.7145   -1.6104   -0.2171 H   0  0  0  0  0  0  0  0  0  0  0  0
   -2.2595    1.0563    1.2281 H   0  0  0  0  0  0  0  0  0  0  0  0
   -1.9222   -0.4857    2.0088 H   0  0  0  0  0  0  0  0  0  0  0  0
   -4.3600    0.0102    1.8598 H   0  0  0  0  0  0  0  0  0  0  0  0
   -3.9575   -1.4712    0.9703 H   0  0  0  0  0  0  0  0  0  0  0  0
   -3.9732    0.7399   -2.1810 H   0  0  0  0  0  0  0  0  0  0  0  0
    2.4081    3.0427    0.2345 H   0  0  0  0  0  0  0  0  0  0  0  0
    5.3965   -0.0593    0.0648 H   0  0  0  0  0  0  0  0  0  0  0  0
    4.7955    2.3259    0.2376 H   0  0  0  0  0  0  0  0  0  0  0  0
    4.6788   -2.3916   -0.1361 H   0  0  0  0  0  0  0  0  0  0  0  0
    2.9868   -2.8259   -0.2111 H   0  0  0  0  0  0  0  0  0  0  0  0
  1 11  2  0  0  0  0
  2 12  2  0  0  0  0
  3 13  2  0  0  0  0
  4 16  2  0  0  0  0
  5  8  1  0  0  0  0
  5 12  1  0  0  0  0
  5 13  1  0  0  0  0
  6 11  1  0  0  0  0
  6 16  1  0  0  0  0
  6 26  1  0  0  0  0
  7 17  1  0  0  0  0
  7 30  1  0  0  0  0
  7 31  1  0  0  0  0
  8  9  1  0  0  0  0
  8 11  1  0  0  0  0
  8 21  1  6  0  0  0
  9 10  1  0  0  0  0
  9 22  1  0  0  0  0
  9 23  1  0  0  0  0
 10 16  1  0  0  0  0
 10 24  1  0  0  0  0
 10 25  1  0  0  0  0
 12 14  1  0  0  0  0
 13 15  1  0  0  0  0
 14 15  2  0  0  0  0
 14 17  1  0  0  0  0
 15 18  1  0  0  0  0
 17 19  2  0  0  0  0
 18 20  2  0  0  0  0
 18 27  1  0  0  0  0
 19 20  1  0  0  0  0
 19 28  1  0  0  0  0
 20 29  1  0  0  0  0
M  END
