DB08604
 OpenBabel07062211533D

 24 25  0  0  0  0  0  0  0  0999 V2000
    2.1370   -1.8576   -2.3190 Cl  0  0  0  0  0  0  0  0  0  0  0  0
   -4.8024   -1.0200    1.6292 Cl  0  0  0  0  0  0  0  0  0  0  0  0
    5.1219    0.3322    1.5942 Cl  0  0  0  0  0  0  0  0  0  0  0  0
    0.0823    0.1419   -1.4172 O   0  0  0  0  0  0  0  0  0  0  0  0
   -1.9889    1.9941   -1.3427 O   0  0  0  0  0  0  0  0  0  0  0  0
   -1.0542   -0.1182   -0.7126 C   0  0  0  0  0  0  0  0  0  0  0  0
    1.2781    0.1693   -0.7205 C   0  0  0  0  0  0  0  0  0  0  0  0
   -2.0938    0.8112   -0.6755 C   0  0  0  0  0  0  0  0  0  0  0  0
   -1.1736   -1.3261   -0.0256 C   0  0  0  0  0  0  0  0  0  0  0  0
    2.3006   -0.7053   -1.0457 C   0  0  0  0  0  0  0  0  0  0  0  0
    1.4141    1.0936    0.3018 C   0  0  0  0  0  0  0  0  0  0  0  0
   -3.2530    0.5325    0.0486 C   0  0  0  0  0  0  0  0  0  0  0  0
   -2.3328   -1.6048    0.6984 C   0  0  0  0  0  0  0  0  0  0  0  0
    3.4952   -0.6548   -0.3270 C   0  0  0  0  0  0  0  0  0  0  0  0
    2.6085    1.1440    1.0202 C   0  0  0  0  0  0  0  0  0  0  0  0
   -3.3726   -0.6756    0.7356 C   0  0  0  0  0  0  0  0  0  0  0  0
    3.6491    0.2699    0.7059 C   0  0  0  0  0  0  0  0  0  0  0  0
   -0.3795   -2.0672   -0.0507 H   0  0  0  0  0  0  0  0  0  0  0  0
    0.6186    1.7893    0.5513 H   0  0  0  0  0  0  0  0  0  0  0  0
   -4.0634    1.2574    0.0771 H   0  0  0  0  0  0  0  0  0  0  0  0
   -2.4130   -2.5512    1.2273 H   0  0  0  0  0  0  0  0  0  0  0  0
    4.3076   -1.3361   -0.5712 H   0  0  0  0  0  0  0  0  0  0  0  0
    2.7153    1.8712    1.8210 H   0  0  0  0  0  0  0  0  0  0  0  0
   -2.8012    2.5104   -1.2030 H   0  0  0  0  0  0  0  0  0  0  0  0
  1 10  1  0  0  0  0
  2 16  1  0  0  0  0
  3 17  1  0  0  0  0
  4  6  1  0  0  0  0
  4  7  1  0  0  0  0
  5  8  1  0  0  0  0
  5 24  1  0  0  0  0
  6  8  2  0  0  0  0
  6  9  1  0  0  0  0
  7 10  2  0  0  0  0
  7 11  1  0  0  0  0
  8 12  1  0  0  0  0
  9 13  2  0  0  0  0
  9 18  1  0  0  0  0
 10 14  1  0  0  0  0
 11 15  2  0  0  0  0
 11 19  1  0  0  0  0
 12 16  2  0  0  0  0
 12 20  1  0  0  0  0
 13 16  1  0  0  0  0
 13 21  1  0  0  0  0
 14 17  2  0  0  0  0
 14 22  1  0  0  0  0
 15 17  1  0  0  0  0
 15 23  1  0  0  0  0
M  END
