DB08872
 OpenBabel07062211533D

 50 50  0  0  1  0  0  0  0  0999 V2000
    5.5686   -1.7360   -0.3837 O   0  0  0  0  0  0  0  0  0  0  0  0
    3.9520   -3.1255    0.4140 O   0  0  0  0  0  0  0  0  0  0  0  0
   -1.1573   -2.1739    0.2325 O   0  0  0  0  0  0  0  0  0  0  0  0
   -0.7500   -0.2740    1.4581 O   0  0  0  0  0  0  0  0  0  0  0  0
   -3.0736   -0.8133   -0.1161 O   0  0  0  0  0  0  0  0  0  0  0  0
   -4.9684   -0.8712    1.1994 O   0  0  0  0  0  0  0  0  0  0  0  0
    0.9663   -1.4929    0.4853 N   0  0  0  0  0  0  0  0  0  0  0  0
    2.8621   -0.1021   -0.2644 C   0  0  0  0  0  0  0  0  0  0  0  0
    4.0606    0.7379    0.2327 C   0  0  0  0  0  0  0  0  0  0  0  0
    1.9489    0.7647   -1.1610 C   0  0  0  0  0  0  0  0  0  0  0  0
    3.6492    2.0613    0.8778 C   0  0  0  0  0  0  0  0  0  0  0  0
    1.5409    2.0880   -0.5137 C   0  0  0  0  0  0  0  0  0  0  0  0
    2.7541    2.8827   -0.0433 C   0  0  0  0  0  0  0  0  0  0  0  0
    2.0680   -0.6706    0.9275 C   0  0  0  0  0  0  0  0  0  0  0  0
    3.3917   -1.2899   -1.0897 C   0  0  0  0  0  0  0  0  0  0  0  0
    4.2864   -2.1672   -0.2661 C   0  0  0  0  0  0  0  0  0  0  0  0
   -0.3513   -1.2214    0.7888 C   0  0  0  0  0  0  0  0  0  0  0  0
   -2.5763   -2.0365    0.4610 C   0  0  1  0  0  0  0  0  0  0  0  0
   -3.2546   -3.2162   -0.2208 C   0  0  0  0  0  0  0  0  0  0  0  0
   -4.6120    0.9492   -0.3760 C   0  0  0  0  0  0  0  0  0  0  0  0
   -4.2727   -0.3456    0.3408 C   0  0  0  0  0  0  0  0  0  0  0  0
   -4.0262    2.1293    0.3903 C   0  0  0  0  0  0  0  0  0  0  0  0
   -6.1223    1.0986   -0.5394 C   0  0  0  0  0  0  0  0  0  0  0  0
    4.6509    0.1851    0.9728 H   0  0  0  0  0  0  0  0  0  0  0  0
    4.7299    0.9615   -0.6089 H   0  0  0  0  0  0  0  0  0  0  0  0
    2.4847    0.9995   -2.0913 H   0  0  0  0  0  0  0  0  0  0  0  0
    1.0503    0.2183   -1.4702 H   0  0  0  0  0  0  0  0  0  0  0  0
    3.1318    1.8752    1.8259 H   0  0  0  0  0  0  0  0  0  0  0  0
    4.5471    2.6404    1.1232 H   0  0  0  0  0  0  0  0  0  0  0  0
    0.9744    2.6859   -1.2373 H   0  0  0  0  0  0  0  0  0  0  0  0
    0.8682    1.9053    0.3314 H   0  0  0  0  0  0  0  0  0  0  0  0
    2.4228    3.7891    0.4760 H   0  0  0  0  0  0  0  0  0  0  0  0
    3.3339    3.2102   -0.9151 H   0  0  0  0  0  0  0  0  0  0  0  0
    1.6774    0.1334    1.5591 H   0  0  0  0  0  0  0  0  0  0  0  0
    2.6871   -1.2849    1.5886 H   0  0  0  0  0  0  0  0  0  0  0  0
    2.5942   -1.9103   -1.5135 H   0  0  0  0  0  0  0  0  0  0  0  0
    3.9572   -0.9360   -1.9627 H   0  0  0  0  0  0  0  0  0  0  0  0
    1.1641   -2.3537   -0.0148 H   0  0  0  0  0  0  0  0  0  0  0  0
    6.1883   -2.2836    0.1437 H   0  0  0  0  0  0  0  0  0  0  0  0
   -2.7578   -2.0626    1.5430 H   0  0  0  0  0  0  0  0  0  0  0  0
   -2.8579   -4.1643    0.1563 H   0  0  0  0  0  0  0  0  0  0  0  0
   -4.3383   -3.2000   -0.0738 H   0  0  0  0  0  0  0  0  0  0  0  0
   -3.0710   -3.1917   -1.3010 H   0  0  0  0  0  0  0  0  0  0  0  0
   -4.1736    0.9107   -1.3813 H   0  0  0  0  0  0  0  0  0  0  0  0
   -4.4393    2.1900    1.4033 H   0  0  0  0  0  0  0  0  0  0  0  0
   -4.2370    3.0730   -0.1230 H   0  0  0  0  0  0  0  0  0  0  0  0
   -2.9392    2.0308    0.4852 H   0  0  0  0  0  0  0  0  0  0  0  0
   -6.3646    1.9992   -1.1129 H   0  0  0  0  0  0  0  0  0  0  0  0
   -6.5423    0.2358   -1.0679 H   0  0  0  0  0  0  0  0  0  0  0  0
   -6.6260    1.1683    0.4311 H   0  0  0  0  0  0  0  0  0  0  0  0
  1 16  1  0  0  0  0
  1 39  1  0  0  0  0
  2 16  2  0  0  0  0
  3 17  1  0  0  0  0
  3 18  1  0  0  0  0
  4 17  2  0  0  0  0
  5 18  1  0  0  0  0
  5 21  1  0  0  0  0
  6 21  2  0  0  0  0
  7 14  1  0  0  0  0
  7 17  1  0  0  0  0
  7 38  1  0  0  0  0
  8  9  1  0  0  0  0
  8 10  1  0  0  0  0
  8 14  1  0  0  0  0
  8 15  1  0  0  0  0
  9 11  1  0  0  0  0
  9 24  1  0  0  0  0
  9 25  1  0  0  0  0
 10 12  1  0  0  0  0
 10 26  1  0  0  0  0
 10 27  1  0  0  0  0
 11 13  1  0  0  0  0
 11 28  1  0  0  0  0
 11 29  1  0  0  0  0
 12 13  1  0  0  0  0
 12 30  1  0  0  0  0
 12 31  1  0  0  0  0
 13 32  1  0  0  0  0
 13 33  1  0  0  0  0
 14 34  1  0  0  0  0
 14 35  1  0  0  0  0
 15 16  1  0  0  0  0
 15 36  1  0  0  0  0
 15 37  1  0  0  0  0
 18 19  1  0  0  0  0
 18 40  1  1  0  0  0
 19 41  1  0  0  0  0
 19 42  1  0  0  0  0
 19 43  1  0  0  0  0
 20 21  1  0  0  0  0
 20 22  1  0  0  0  0
 20 23  1  0  0  0  0
 20 44  1  0  0  0  0
 22 45  1  0  0  0  0
 22 46  1  0  0  0  0
 22 47  1  0  0  0  0
 23 48  1  0  0  0  0
 23 49  1  0  0  0  0
 23 50  1  0  0  0  0
M  END
