DB08864
 OpenBabel07062211533D

 46 48  0  0  0  0  0  0  0  0999 V2000
    0.4232    0.0693   -0.1321 N   0  0  0  0  0  0  0  0  0  0  0  0
   -1.7855   -0.7305    0.2582 N   0  0  0  0  0  0  0  0  0  0  0  0
   -3.9452   -1.5567    0.6564 N   0  0  0  0  0  0  0  0  0  0  0  0
   -2.1217   -2.9737    1.0722 N   0  0  0  0  0  0  0  0  0  0  0  0
    9.4321    1.1342   -0.0230 N   0  0  0  0  0  0  0  0  0  0  0  0
   -7.7979    3.7668   -1.0566 N   0  0  0  0  0  0  0  0  0  0  0  0
    1.8226    0.1404   -0.2249 C   0  0  0  0  0  0  0  0  0  0  0  0
    2.5823    0.5810    0.8653 C   0  0  0  0  0  0  0  0  0  0  0  0
    2.4728   -0.2276   -1.4086 C   0  0  0  0  0  0  0  0  0  0  0  0
    4.6125    0.2840   -0.4101 C   0  0  0  0  0  0  0  0  0  0  0  0
    3.9722    0.6525    0.7731 C   0  0  0  0  0  0  0  0  0  0  0  0
    3.8627   -0.1559   -1.5009 C   0  0  0  0  0  0  0  0  0  0  0  0
    1.9246    0.9828    2.1456 C   0  0  0  0  0  0  0  0  0  0  0  0
    1.6953   -0.7022   -2.5934 C   0  0  0  0  0  0  0  0  0  0  0  0
   -0.4567   -0.9627    0.2770 C   0  0  0  0  0  0  0  0  0  0  0  0
    6.0621    0.3578   -0.5069 C   0  0  0  0  0  0  0  0  0  0  0  0
    0.1075   -2.1574    0.6752 C   0  0  0  0  0  0  0  0  0  0  0  0
   -2.5521   -1.7634    0.6625 C   0  0  0  0  0  0  0  0  0  0  0  0
   -4.7453   -0.4510    0.3009 C   0  0  0  0  0  0  0  0  0  0  0  0
   -0.7824   -3.1369    1.0660 C   0  0  0  0  0  0  0  0  0  0  0  0
   -6.0284   -0.6531   -0.2077 C   0  0  0  0  0  0  0  0  0  0  0  0
   -4.2530    0.8448    0.4567 C   0  0  0  0  0  0  0  0  0  0  0  0
    6.8691    1.0964    0.2874 C   0  0  0  0  0  0  0  0  0  0  0  0
   -6.8191    0.4404   -0.5601 C   0  0  0  0  0  0  0  0  0  0  0  0
   -5.0439    1.9384    0.1040 C   0  0  0  0  0  0  0  0  0  0  0  0
   -6.3270    1.7363   -0.4044 C   0  0  0  0  0  0  0  0  0  0  0  0
    8.2800    1.1154    0.1143 C   0  0  0  0  0  0  0  0  0  0  0  0
   -7.1382    2.8561   -0.7641 C   0  0  0  0  0  0  0  0  0  0  0  0
    4.5325    0.9778    1.6452 H   0  0  0  0  0  0  0  0  0  0  0  0
    4.3607   -0.4435   -2.4247 H   0  0  0  0  0  0  0  0  0  0  0  0
   -0.0558    0.9195   -0.4116 H   0  0  0  0  0  0  0  0  0  0  0  0
    2.6359    1.4342    2.8458 H   0  0  0  0  0  0  0  0  0  0  0  0
    1.1429    1.7279    1.9631 H   0  0  0  0  0  0  0  0  0  0  0  0
    1.4849    0.1100    2.6389 H   0  0  0  0  0  0  0  0  0  0  0  0
    2.3329   -0.8249   -3.4758 H   0  0  0  0  0  0  0  0  0  0  0  0
    1.2336   -1.6724   -2.3835 H   0  0  0  0  0  0  0  0  0  0  0  0
    0.9167    0.0199   -2.8612 H   0  0  0  0  0  0  0  0  0  0  0  0
    6.5117   -0.2339   -1.3030 H   0  0  0  0  0  0  0  0  0  0  0  0
    1.1727   -2.3493    0.6925 H   0  0  0  0  0  0  0  0  0  0  0  0
   -4.4666   -2.4086    0.8401 H   0  0  0  0  0  0  0  0  0  0  0  0
   -0.4327   -4.1097    1.3952 H   0  0  0  0  0  0  0  0  0  0  0  0
   -6.4231   -1.6579   -0.3349 H   0  0  0  0  0  0  0  0  0  0  0  0
   -3.2791    1.0502    0.8882 H   0  0  0  0  0  0  0  0  0  0  0  0
    6.4777    1.7254    1.0788 H   0  0  0  0  0  0  0  0  0  0  0  0
   -7.8173    0.2666   -0.9551 H   0  0  0  0  0  0  0  0  0  0  0  0
   -4.6502    2.9430    0.2401 H   0  0  0  0  0  0  0  0  0  0  0  0
  1  7  1  0  0  0  0
  1 15  1  0  0  0  0
  1 31  1  0  0  0  0
  2 15  2  0  0  0  0
  2 18  1  0  0  0  0
  3 18  1  0  0  0  0
  3 19  1  0  0  0  0
  3 40  1  0  0  0  0
  4 18  2  0  0  0  0
  4 20  1  0  0  0  0
  5 27  3  0  0  0  0
  6 28  3  0  0  0  0
  7  8  2  0  0  0  0
  7  9  1  0  0  0  0
  8 11  1  0  0  0  0
  8 13  1  0  0  0  0
  9 12  2  0  0  0  0
  9 14  1  0  0  0  0
 10 11  2  0  0  0  0
 10 12  1  0  0  0  0
 10 16  1  0  0  0  0
 11 29  1  0  0  0  0
 12 30  1  0  0  0  0
 13 32  1  0  0  0  0
 13 33  1  0  0  0  0
 13 34  1  0  0  0  0
 14 35  1  0  0  0  0
 14 36  1  0  0  0  0
 14 37  1  0  0  0  0
 15 17  1  0  0  0  0
 16 23  2  0  0  0  0
 16 38  1  0  0  0  0
 17 20  2  0  0  0  0
 17 39  1  0  0  0  0
 19 21  2  0  0  0  0
 19 22  1  0  0  0  0
 20 41  1  0  0  0  0
 21 24  1  0  0  0  0
 21 42  1  0  0  0  0
 22 25  2  0  0  0  0
 22 43  1  0  0  0  0
 23 27  1  0  0  0  0
 23 44  1  0  0  0  0
 24 26  2  0  0  0  0
 24 45  1  0  0  0  0
 25 26  1  0  0  0  0
 25 46  1  0  0  0  0
 26 28  1  0  0  0  0
M  END
