DB08887
 OpenBabel07062211533D

 58 57  0  0  0  0  0  0  0  0999 V2000
   -1.9813    3.1821   -0.0146 O   0  0  0  0  0  0  0  0  0  0  0  0
   -1.1519    1.8570   -1.7114 O   0  0  0  0  0  0  0  0  0  0  0  0
    1.5125    2.3546   -0.9263 C   0  0  0  0  0  0  0  0  0  0  0  0
    2.8569    2.8081   -0.3559 C   0  0  0  0  0  0  0  0  0  0  0  0
    0.3482    2.9973   -0.1737 C   0  0  0  0  0  0  0  0  0  0  0  0
    4.0046    2.2093   -1.1142 C   0  0  0  0  0  0  0  0  0  0  0  0
    4.6014    1.0566   -0.7754 C   0  0  0  0  0  0  0  0  0  0  0  0
    4.1944    0.2233    0.4046 C   0  0  0  0  0  0  0  0  0  0  0  0
   -0.9904    2.5934   -0.7480 C   0  0  0  0  0  0  0  0  0  0  0  0
    4.4796   -1.2340    0.1786 C   0  0  0  0  0  0  0  0  0  0  0  0
    2.0714   -2.0298    0.5218 C   0  0  0  0  0  0  0  0  0  0  0  0
    3.5413   -2.1930    0.2347 C   0  0  0  0  0  0  0  0  0  0  0  0
   -0.2502   -0.5268    1.7027 C   0  0  0  0  0  0  0  0  0  0  0  0
    1.6834   -2.0964    1.9704 C   0  0  0  0  0  0  0  0  0  0  0  0
    0.6481   -1.4267    2.4996 C   0  0  0  0  0  0  0  0  0  0  0  0
   -2.4440   -2.4169    0.8853 C   0  0  0  0  0  0  0  0  0  0  0  0
   -3.3172    2.8908   -0.4377 C   0  0  0  0  0  0  0  0  0  0  0  0
   -1.6376   -0.4909    2.2733 C   0  0  0  0  0  0  0  0  0  0  0  0
   -2.6163   -1.3335    1.9092 C   0  0  0  0  0  0  0  0  0  0  0  0
   -3.4459   -2.2923   -0.2253 C   0  0  0  0  0  0  0  0  0  0  0  0
   -1.6935   -2.1946   -2.0179 C   0  0  0  0  0  0  0  0  0  0  0  0
   -3.1079   -2.1932   -1.5197 C   0  0  0  0  0  0  0  0  0  0  0  0
   -4.2903    3.6128    0.4696 C   0  0  0  0  0  0  0  0  0  0  0  0
   -1.2160   -3.6064   -2.3207 C   0  0  0  0  0  0  0  0  0  0  0  0
    1.4234    1.2624   -0.8730 H   0  0  0  0  0  0  0  0  0  0  0  0
    1.4527    2.6189   -1.9903 H   0  0  0  0  0  0  0  0  0  0  0  0
    2.9169    2.5832    0.7151 H   0  0  0  0  0  0  0  0  0  0  0  0
    2.9383    3.9002   -0.4288 H   0  0  0  0  0  0  0  0  0  0  0  0
    0.4264    4.0886   -0.2373 H   0  0  0  0  0  0  0  0  0  0  0  0
    0.3775    2.7011    0.8801 H   0  0  0  0  0  0  0  0  0  0  0  0
    4.3648    2.7502   -1.9852 H   0  0  0  0  0  0  0  0  0  0  0  0
    5.4498    0.7279   -1.3714 H   0  0  0  0  0  0  0  0  0  0  0  0
    3.1536    0.3901    0.6882 H   0  0  0  0  0  0  0  0  0  0  0  0
    4.8021    0.5381    1.2627 H   0  0  0  0  0  0  0  0  0  0  0  0
    5.5089   -1.5244   -0.0189 H   0  0  0  0  0  0  0  0  0  0  0  0
    1.7221   -1.1133    0.0375 H   0  0  0  0  0  0  0  0  0  0  0  0
    1.5541   -2.8469    0.0010 H   0  0  0  0  0  0  0  0  0  0  0  0
    3.8733   -3.2183    0.0776 H   0  0  0  0  0  0  0  0  0  0  0  0
    0.1509    0.4915    1.7747 H   0  0  0  0  0  0  0  0  0  0  0  0
   -0.2752   -0.7550    0.6360 H   0  0  0  0  0  0  0  0  0  0  0  0
    2.2669   -2.7415    2.6229 H   0  0  0  0  0  0  0  0  0  0  0  0
    0.4687   -1.5222    3.5681 H   0  0  0  0  0  0  0  0  0  0  0  0
   -2.6604   -3.3659    1.3957 H   0  0  0  0  0  0  0  0  0  0  0  0
   -1.4177   -2.5338    0.5397 H   0  0  0  0  0  0  0  0  0  0  0  0
   -3.4901    1.8101   -0.3808 H   0  0  0  0  0  0  0  0  0  0  0  0
   -3.4546    3.2274   -1.4712 H   0  0  0  0  0  0  0  0  0  0  0  0
   -1.8462    0.2517    3.0394 H   0  0  0  0  0  0  0  0  0  0  0  0
   -3.5851   -1.2437    2.3949 H   0  0  0  0  0  0  0  0  0  0  0  0
   -4.5009   -2.3048    0.0375 H   0  0  0  0  0  0  0  0  0  0  0  0
   -1.0033   -1.6917   -1.3364 H   0  0  0  0  0  0  0  0  0  0  0  0
   -1.6620   -1.6035   -2.9418 H   0  0  0  0  0  0  0  0  0  0  0  0
   -3.8986   -2.1298   -2.2627 H   0  0  0  0  0  0  0  0  0  0  0  0
   -4.1526    3.2987    1.5096 H   0  0  0  0  0  0  0  0  0  0  0  0
   -4.1173    4.6936    0.4383 H   0  0  0  0  0  0  0  0  0  0  0  0
   -5.3237    3.4116    0.1739 H   0  0  0  0  0  0  0  0  0  0  0  0
   -1.8639   -4.0961   -3.0556 H   0  0  0  0  0  0  0  0  0  0  0  0
   -0.2014   -3.5801   -2.7312 H   0  0  0  0  0  0  0  0  0  0  0  0
   -1.1965   -4.2247   -1.4171 H   0  0  0  0  0  0  0  0  0  0  0  0
  1  9  1  0  0  0  0
  1 17  1  0  0  0  0
  2  9  2  0  0  0  0
  3  4  1  0  0  0  0
  3  5  1  0  0  0  0
  3 25  1  0  0  0  0
  3 26  1  0  0  0  0
  4  6  1  0  0  0  0
  4 27  1  0  0  0  0
  4 28  1  0  0  0  0
  5  9  1  0  0  0  0
  5 29  1  0  0  0  0
  5 30  1  0  0  0  0
  6  7  2  0  0  0  0
  6 31  1  0  0  0  0
  7  8  1  0  0  0  0
  7 32  1  0  0  0  0
  8 10  1  0  0  0  0
  8 33  1  0  0  0  0
  8 34  1  0  0  0  0
 10 12  2  0  0  0  0
 10 35  1  0  0  0  0
 11 12  1  0  0  0  0
 11 14  1  0  0  0  0
 11 36  1  0  0  0  0
 11 37  1  0  0  0  0
 12 38  1  0  0  0  0
 13 15  1  0  0  0  0
 13 18  1  0  0  0  0
 13 39  1  0  0  0  0
 13 40  1  0  0  0  0
 14 15  2  0  0  0  0
 14 41  1  0  0  0  0
 15 42  1  0  0  0  0
 16 19  1  0  0  0  0
 16 20  1  0  0  0  0
 16 43  1  0  0  0  0
 16 44  1  0  0  0  0
 17 23  1  0  0  0  0
 17 45  1  0  0  0  0
 17 46  1  0  0  0  0
 18 19  2  0  0  0  0
 18 47  1  0  0  0  0
 19 48  1  0  0  0  0
 20 22  2  0  0  0  0
 20 49  1  0  0  0  0
 21 22  1  0  0  0  0
 21 24  1  0  0  0  0
 21 50  1  0  0  0  0
 21 51  1  0  0  0  0
 22 52  1  0  0  0  0
 23 53  1  0  0  0  0
 23 54  1  0  0  0  0
 23 55  1  0  0  0  0
 24 56  1  0  0  0  0
 24 57  1  0  0  0  0
 24 58  1  0  0  0  0
M  END
