DB08860
 OpenBabel07062211533D

 55 58  0  0  1  0  0  0  0  0999 V2000
   -1.6899   -4.9129   -0.1791 F   0  0  0  0  0  0  0  0  0  0  0  0
   -2.6169    2.8406   -0.4941 O   0  0  0  0  0  0  0  0  0  0  0  0
   -5.3362   -0.1801   -1.7502 O   0  0  0  0  0  0  0  0  0  0  0  0
   -4.0253   -0.7376    2.1927 O   0  0  0  0  0  0  0  0  0  0  0  0
   -5.3280   -1.8407    0.6947 O   0  0  0  0  0  0  0  0  0  0  0  0
    3.6875    1.4618    0.3740 N   0  0  0  0  0  0  0  0  0  0  0  0
    1.9052    3.0173    0.8341 C   0  0  0  0  0  0  0  0  0  0  0  0
    1.4456    3.8813   -0.2936 C   0  0  0  0  0  0  0  0  0  0  0  0
    2.7557    4.1590    0.3833 C   0  0  0  0  0  0  0  0  0  0  0  0
    2.3545    1.6193    0.5418 C   0  0  0  0  0  0  0  0  0  0  0  0
    1.4495    0.5894    0.4555 C   0  0  0  0  0  0  0  0  0  0  0  0
    1.9208   -0.6793    0.1826 C   0  0  0  0  0  0  0  0  0  0  0  0
    4.1543    0.2272    0.1076 C   0  0  0  0  0  0  0  0  0  0  0  0
    3.2950   -0.8867    0.0019 C   0  0  0  0  0  0  0  0  0  0  0  0
    0.0134    0.8531    0.6507 C   0  0  0  0  0  0  0  0  0  0  0  0
    0.9764   -1.7869    0.0880 C   0  0  0  0  0  0  0  0  0  0  0  0
   -0.8411    1.2084   -0.3229 C   0  0  0  0  0  0  0  0  0  0  0  0
   -2.3158    1.4908   -0.1550 C   0  0  2  0  0  0  0  0  0  0  0  0
    5.5193    0.0205   -0.0721 C   0  0  0  0  0  0  0  0  0  0  0  0
    3.8164   -2.1613   -0.2771 C   0  0  0  0  0  0  0  0  0  0  0  0
   -3.1460    0.5337   -1.0282 C   0  0  0  0  0  0  0  0  0  0  0  0
   -4.6628    0.7363   -0.8908 C   0  0  2  0  0  0  0  0  0  0  0  0
    6.0380   -1.2466   -0.3494 C   0  0  0  0  0  0  0  0  0  0  0  0
    5.1859   -2.3392   -0.4522 C   0  0  0  0  0  0  0  0  0  0  0  0
    0.6568   -2.5148    1.2270 C   0  0  0  0  0  0  0  0  0  0  0  0
    0.4079   -2.1001   -1.1401 C   0  0  0  0  0  0  0  0  0  0  0  0
   -5.1652    0.5670    0.5447 C   0  0  0  0  0  0  0  0  0  0  0  0
   -0.2464   -3.5739    1.1364 C   0  0  0  0  0  0  0  0  0  0  0  0
   -0.4954   -3.1593   -1.2306 C   0  0  0  0  0  0  0  0  0  0  0  0
   -0.8224   -3.8961   -0.0924 C   0  0  0  0  0  0  0  0  0  0  0  0
   -4.8594   -0.7945    1.1250 C   0  0  0  0  0  0  0  0  0  0  0  0
    1.4104    3.1674    1.7915 H   0  0  0  0  0  0  0  0  0  0  0  0
    0.6253    4.5636   -0.1056 H   0  0  0  0  0  0  0  0  0  0  0  0
    1.4775    3.4938   -1.3050 H   0  0  0  0  0  0  0  0  0  0  0  0
    2.8133    5.0298    1.0265 H   0  0  0  0  0  0  0  0  0  0  0  0
    3.6536    3.9881   -0.1978 H   0  0  0  0  0  0  0  0  0  0  0  0
   -0.3427    0.7406    1.6716 H   0  0  0  0  0  0  0  0  0  0  0  0
   -0.4546    1.3189   -1.3354 H   0  0  0  0  0  0  0  0  0  0  0  0
   -2.5759    1.3632    0.9000 H   0  0  0  0  0  0  0  0  0  0  0  0
    6.2077    0.8602    0.0034 H   0  0  0  0  0  0  0  0  0  0  0  0
    3.1875   -3.0428   -0.3663 H   0  0  0  0  0  0  0  0  0  0  0  0
   -2.8888    0.6795   -2.0868 H   0  0  0  0  0  0  0  0  0  0  0  0
   -2.8834   -0.5091   -0.8062 H   0  0  0  0  0  0  0  0  0  0  0  0
   -4.9309    1.7402   -1.2379 H   0  0  0  0  0  0  0  0  0  0  0  0
    5.5858   -3.3254   -0.6677 H   0  0  0  0  0  0  0  0  0  0  0  0
    7.1078   -1.3761   -0.4846 H   0  0  0  0  0  0  0  0  0  0  0  0
    1.0976   -2.2753    2.1915 H   0  0  0  0  0  0  0  0  0  0  0  0
    0.6530   -1.5351   -2.0359 H   0  0  0  0  0  0  0  0  0  0  0  0
   -4.7695    1.3478    1.2022 H   0  0  0  0  0  0  0  0  0  0  0  0
   -6.2573    0.6703    0.5727 H   0  0  0  0  0  0  0  0  0  0  0  0
   -0.5016   -4.1476    2.0225 H   0  0  0  0  0  0  0  0  0  0  0  0
   -0.9447   -3.4097   -2.1869 H   0  0  0  0  0  0  0  0  0  0  0  0
   -2.3974    2.9702   -1.4327 H   0  0  0  0  0  0  0  0  0  0  0  0
   -5.0629   -1.0808   -1.5068 H   0  0  0  0  0  0  0  0  0  0  0  0
   -3.8414   -1.6276    2.5617 H   0  0  0  0  0  0  0  0  0  0  0  0
  1 30  1  0  0  0  0
  2 18  1  0  0  0  0
  2 53  1  0  0  0  0
  3 22  1  0  0  0  0
  3 54  1  0  0  0  0
  4 31  1  0  0  0  0
  4 55  1  0  0  0  0
  5 31  2  0  0  0  0
  6 10  2  0  0  0  0
  6 13  1  0  0  0  0
  7  8  1  0  0  0  0
  7  9  1  0  0  0  0
  7 10  1  0  0  0  0
  7 32  1  0  0  0  0
  8  9  1  0  0  0  0
  8 33  1  0  0  0  0
  8 34  1  0  0  0  0
  9 35  1  0  0  0  0
  9 36  1  0  0  0  0
 10 11  1  0  0  0  0
 11 12  2  0  0  0  0
 11 15  1  0  0  0  0
 12 14  1  0  0  0  0
 12 16  1  0  0  0  0
 13 14  2  0  0  0  0
 13 19  1  0  0  0  0
 14 20  1  0  0  0  0
 15 17  2  0  0  0  0
 15 37  1  0  0  0  0
 16 25  2  0  0  0  0
 16 26  1  0  0  0  0
 17 18  1  0  0  0  0
 17 38  1  0  0  0  0
 18 21  1  0  0  0  0
 18 39  1  1  0  0  0
 19 23  2  0  0  0  0
 19 40  1  0  0  0  0
 20 24  2  0  0  0  0
 20 41  1  0  0  0  0
 21 22  1  0  0  0  0
 21 42  1  0  0  0  0
 21 43  1  0  0  0  0
 22 27  1  0  0  0  0
 22 44  1  6  0  0  0
 23 24  1  0  0  0  0
 23 46  1  0  0  0  0
 24 45  1  0  0  0  0
 25 28  1  0  0  0  0
 25 47  1  0  0  0  0
 26 29  2  0  0  0  0
 26 48  1  0  0  0  0
 27 31  1  0  0  0  0
 27 49  1  0  0  0  0
 27 50  1  0  0  0  0
 28 30  2  0  0  0  0
 28 51  1  0  0  0  0
 29 30  1  0  0  0  0
 29 52  1  0  0  0  0
M  END
