DB08981
 OpenBabel07062211533D

 33 34  0  0  0  0  0  0  0  0999 V2000
   -2.8252   -2.1807   -0.0000 O   0  0  0  0  0  0  0  0  0  0  0  0
   -7.0917    0.5289    0.0095 O   0  0  0  0  0  0  0  0  0  0  0  0
   -5.4106    2.0590   -0.0189 O   0  0  0  0  0  0  0  0  0  0  0  0
   -0.9667   -0.7396    0.0030 C   0  0  0  0  0  0  0  0  0  0  0  0
    1.7374   -0.2321    0.0016 C   0  0  0  0  0  0  0  0  0  0  0  0
   -3.3983    0.1597    0.0109 C   0  0  0  0  0  0  0  0  0  0  0  0
   -2.4337   -1.0158    0.0036 C   0  0  0  0  0  0  0  0  0  0  0  0
    3.1597    0.0340    0.0003 C   0  0  0  0  0  0  0  0  0  0  0  0
   -0.5417    0.5692    0.0092 C   0  0  0  0  0  0  0  0  0  0  0  0
   -0.0962   -1.8055   -0.0037 C   0  0  0  0  0  0  0  0  0  0  0  0
    0.8292    0.8264    0.0084 C   0  0  0  0  0  0  0  0  0  0  0  0
    1.2748   -1.5481   -0.0044 C   0  0  0  0  0  0  0  0  0  0  0  0
   -4.8544   -0.2907   -0.0140 C   0  0  0  0  0  0  0  0  0  0  0  0
    3.8428    0.1687   -1.2084 C   0  0  0  0  0  0  0  0  0  0  0  0
    3.8476    0.1566    1.2076 C   0  0  0  0  0  0  0  0  0  0  0  0
    5.2138    0.4256   -1.2099 C   0  0  0  0  0  0  0  0  0  0  0  0
    5.2187    0.4136    1.2061 C   0  0  0  0  0  0  0  0  0  0  0  0
   -5.7856    0.8937   -0.0124 C   0  0  0  0  0  0  0  0  0  0  0  0
    5.9017    0.5481   -0.0028 C   0  0  0  0  0  0  0  0  0  0  0  0
   -3.2223    0.7531    0.9159 H   0  0  0  0  0  0  0  0  0  0  0  0
   -3.2039    0.7787   -0.8727 H   0  0  0  0  0  0  0  0  0  0  0  0
   -1.2103    1.4221    0.0158 H   0  0  0  0  0  0  0  0  0  0  0  0
   -0.4351   -2.8366   -0.0086 H   0  0  0  0  0  0  0  0  0  0  0  0
    1.1737    1.8580    0.0133 H   0  0  0  0  0  0  0  0  0  0  0  0
    1.9695   -2.3849   -0.0098 H   0  0  0  0  0  0  0  0  0  0  0  0
   -5.0521   -0.8837   -0.9140 H   0  0  0  0  0  0  0  0  0  0  0  0
   -5.0736   -0.9037    0.8673 H   0  0  0  0  0  0  0  0  0  0  0  0
    3.3218    0.0762   -2.1585 H   0  0  0  0  0  0  0  0  0  0  0  0
    3.3305    0.0547    2.1588 H   0  0  0  0  0  0  0  0  0  0  0  0
    5.7458    0.5304   -2.1510 H   0  0  0  0  0  0  0  0  0  0  0  0
    5.7544    0.5090    2.1459 H   0  0  0  0  0  0  0  0  0  0  0  0
    6.9691    0.7483   -0.0039 H   0  0  0  0  0  0  0  0  0  0  0  0
   -7.6890    1.3071    0.0160 H   0  0  0  0  0  0  0  0  0  0  0  0
  1  7  2  0  0  0  0
  2 18  1  0  0  0  0
  2 33  1  0  0  0  0
  3 18  2  0  0  0  0
  4  7  1  0  0  0  0
  4  9  2  0  0  0  0
  4 10  1  0  0  0  0
  5  8  1  0  0  0  0
  5 11  2  0  0  0  0
  5 12  1  0  0  0  0
  6  7  1  0  0  0  0
  6 13  1  0  0  0  0
  6 20  1  0  0  0  0
  6 21  1  0  0  0  0
  8 14  2  0  0  0  0
  8 15  1  0  0  0  0
  9 11  1  0  0  0  0
  9 22  1  0  0  0  0
 10 12  2  0  0  0  0
 10 23  1  0  0  0  0
 11 24  1  0  0  0  0
 12 25  1  0  0  0  0
 13 18  1  0  0  0  0
 13 26  1  0  0  0  0
 13 27  1  0  0  0  0
 14 16  1  0  0  0  0
 14 28  1  0  0  0  0
 15 17  2  0  0  0  0
 15 29  1  0  0  0  0
 16 19  2  0  0  0  0
 16 30  1  0  0  0  0
 17 19  1  0  0  0  0
 17 31  1  0  0  0  0
 19 32  1  0  0  0  0
M  END
