DB08916
 OpenBabel07062211533D

 59 62  0  0  1  0  0  0  0  0999 V2000
   -7.3444    2.1254   -2.9802 Cl  0  0  0  0  0  0  0  0  0  0  0  0
   -7.4921    4.6144   -1.3763 F   0  0  0  0  0  0  0  0  0  0  0  0
    2.7089   -5.7375    0.2800 O   0  0  0  0  0  0  0  0  0  0  0  0
    0.8940   -3.3257    0.5877 O   0  0  0  0  0  0  0  0  0  0  0  0
    0.3409    1.7394    0.7193 O   0  0  0  0  0  0  0  0  0  0  0  0
    0.9905   -0.5214    0.6684 N   0  0  0  0  0  0  0  0  0  0  0  0
   -3.8627   -3.2405    0.5011 N   0  0  0  0  0  0  0  0  0  0  0  0
   -3.9089    0.8962    0.6153 N   0  0  0  0  0  0  0  0  0  0  0  0
   -5.0638   -1.1518    0.5370 N   0  0  0  0  0  0  0  0  0  0  0  0
    4.8410    3.7653   -0.2747 N   0  0  0  0  0  0  0  0  0  0  0  0
    1.1217   -4.1756   -0.5313 C   0  0  1  0  0  0  0  0  0  0  0  0
    2.4621   -3.8654   -1.1512 C   0  0  0  0  0  0  0  0  0  0  0  0
    1.3142   -5.5958   -0.0411 C   0  0  0  0  0  0  0  0  0  0  0  0
    3.4158   -4.5986   -0.2291 C   0  0  0  0  0  0  0  0  0  0  0  0
   -0.2581   -2.5970    0.5870 C   0  0  0  0  0  0  0  0  0  0  0  0
   -0.2252   -1.2075    0.6265 C   0  0  0  0  0  0  0  0  0  0  0  0
   -1.4837   -3.2682    0.5452 C   0  0  0  0  0  0  0  0  0  0  0  0
   -2.6472   -1.1745    0.5819 C   0  0  0  0  0  0  0  0  0  0  0  0
   -2.6934   -2.5777    0.5418 C   0  0  0  0  0  0  0  0  0  0  0  0
   -1.4187   -0.4923    0.6240 C   0  0  0  0  0  0  0  0  0  0  0  0
   -3.8756   -0.5198    0.5770 C   0  0  0  0  0  0  0  0  0  0  0  0
    1.1977    0.8635    0.7110 C   0  0  0  0  0  0  0  0  0  0  0  0
   -4.9842   -2.4917    0.5014 C   0  0  0  0  0  0  0  0  0  0  0  0
   -4.8188    1.8367    0.1066 C   0  0  0  0  0  0  0  0  0  0  0  0
    2.6520    1.2009    0.7475 C   0  0  0  0  0  0  0  0  0  0  0  0
    4.4955    2.8868    0.8382 C   0  0  0  0  0  0  0  0  0  0  0  0
    3.0531    2.4794    0.7908 C   0  0  0  0  0  0  0  0  0  0  0  0
   -5.5458    1.5502   -1.0489 C   0  0  0  0  0  0  0  0  0  0  0  0
   -4.9956    3.0578    0.7571 C   0  0  0  0  0  0  0  0  0  0  0  0
   -6.4498    2.4847   -1.5539 C   0  0  0  0  0  0  0  0  0  0  0  0
   -5.8996    3.9925    0.2519 C   0  0  0  0  0  0  0  0  0  0  0  0
    6.0260    4.5615    0.0471 C   0  0  0  0  0  0  0  0  0  0  0  0
    5.0671    2.9868   -1.4934 C   0  0  0  0  0  0  0  0  0  0  0  0
   -6.6267    3.7059   -0.9035 C   0  0  0  0  0  0  0  0  0  0  0  0
    0.3142   -4.1037   -1.2695 H   0  0  0  0  0  0  0  0  0  0  0  0
    2.5185   -4.3001   -2.1560 H   0  0  0  0  0  0  0  0  0  0  0  0
    2.6943   -2.7986   -1.2126 H   0  0  0  0  0  0  0  0  0  0  0  0
    1.0910   -6.3208   -0.8307 H   0  0  0  0  0  0  0  0  0  0  0  0
    0.7229   -5.8372    0.8466 H   0  0  0  0  0  0  0  0  0  0  0  0
    3.7030   -3.9742    0.6237 H   0  0  0  0  0  0  0  0  0  0  0  0
    4.3246   -4.9270   -0.7411 H   0  0  0  0  0  0  0  0  0  0  0  0
   -1.5006   -4.3568    0.5250 H   0  0  0  0  0  0  0  0  0  0  0  0
   -1.4418    0.5855    0.6401 H   0  0  0  0  0  0  0  0  0  0  0  0
    1.8143   -1.1196    0.6669 H   0  0  0  0  0  0  0  0  0  0  0  0
   -3.2806    1.2857    1.3129 H   0  0  0  0  0  0  0  0  0  0  0  0
   -5.9228   -3.0314    0.4682 H   0  0  0  0  0  0  0  0  0  0  0  0
    3.3742    0.3915    0.7366 H   0  0  0  0  0  0  0  0  0  0  0  0
    4.6161    3.4253    1.7881 H   0  0  0  0  0  0  0  0  0  0  0  0
    5.1674    2.0202    0.8955 H   0  0  0  0  0  0  0  0  0  0  0  0
    2.3225    3.2849    0.8071 H   0  0  0  0  0  0  0  0  0  0  0  0
   -5.4049    0.6070   -1.5717 H   0  0  0  0  0  0  0  0  0  0  0  0
   -4.4365    3.2940    1.6588 H   0  0  0  0  0  0  0  0  0  0  0  0
   -6.0377    4.9432    0.7583 H   0  0  0  0  0  0  0  0  0  0  0  0
    6.9009    3.9347    0.2548 H   0  0  0  0  0  0  0  0  0  0  0  0
    6.2732    5.2358   -0.7806 H   0  0  0  0  0  0  0  0  0  0  0  0
    5.8399    5.1969    0.9203 H   0  0  0  0  0  0  0  0  0  0  0  0
    5.2996    3.6523   -2.3326 H   0  0  0  0  0  0  0  0  0  0  0  0
    5.8935    2.2748   -1.3848 H   0  0  0  0  0  0  0  0  0  0  0  0
    4.1685    2.4316   -1.7836 H   0  0  0  0  0  0  0  0  0  0  0  0
  1 30  1  0  0  0  0
  2 34  1  0  0  0  0
  3 13  1  0  0  0  0
  3 14  1  0  0  0  0
  4 11  1  0  0  0  0
  4 15  1  0  0  0  0
  5 22  2  0  0  0  0
  6 16  1  0  0  0  0
  6 22  1  0  0  0  0
  6 44  1  0  0  0  0
  7 19  2  0  0  0  0
  7 23  1  0  0  0  0
  8 21  1  0  0  0  0
  8 24  1  0  0  0  0
  8 45  1  0  0  0  0
  9 21  1  0  0  0  0
  9 23  2  0  0  0  0
 10 26  1  0  0  0  0
 10 32  1  0  0  0  0
 10 33  1  0  0  0  0
 11 12  1  0  0  0  0
 11 13  1  0  0  0  0
 11 35  1  6  0  0  0
 12 14  1  0  0  0  0
 12 36  1  0  0  0  0
 12 37  1  0  0  0  0
 13 38  1  0  0  0  0
 13 39  1  0  0  0  0
 14 40  1  0  0  0  0
 14 41  1  0  0  0  0
 15 16  1  0  0  0  0
 15 17  2  0  0  0  0
 16 20  2  0  0  0  0
 17 19  1  0  0  0  0
 17 42  1  0  0  0  0
 18 19  1  0  0  0  0
 18 20  1  0  0  0  0
 18 21  2  0  0  0  0
 20 43  1  0  0  0  0
 22 25  1  0  0  0  0
 23 46  1  0  0  0  0
 24 28  2  0  0  0  0
 24 29  1  0  0  0  0
 25 27  2  0  0  0  0
 25 47  1  0  0  0  0
 26 27  1  0  0  0  0
 26 48  1  0  0  0  0
 26 49  1  0  0  0  0
 27 50  1  0  0  0  0
 28 30  1  0  0  0  0
 28 51  1  0  0  0  0
 29 31  2  0  0  0  0
 29 52  1  0  0  0  0
 30 34  2  0  0  0  0
 31 34  1  0  0  0  0
 31 53  1  0  0  0  0
 32 54  1  0  0  0  0
 32 55  1  0  0  0  0
 32 56  1  0  0  0  0
 33 57  1  0  0  0  0
 33 58  1  0  0  0  0
 33 59  1  0  0  0  0
M  END
