DB08882
 OpenBabel07062211533D

 63 67  0  0  1  0  0  0  0  0999 V2000
   -0.8440    0.0238   -2.3426 O   0  0  0  0  0  0  0  0  0  0  0  0
   -2.4882    3.8080   -0.1093 O   0  0  0  0  0  0  0  0  0  0  0  0
    3.8188    0.6925    0.2078 N   0  0  0  0  0  0  0  0  0  0  0  0
    1.7006    0.5181   -0.8482 N   0  0  0  0  0  0  0  0  0  0  0  0
    5.5702   -2.3687    1.4585 N   0  0  0  0  0  0  0  0  0  0  0  0
    1.9608    2.2077    0.5828 N   0  0  0  0  0  0  0  0  0  0  0  0
   -0.3014    3.1421    0.3249 N   0  0  0  0  0  0  0  0  0  0  0  0
   -1.6892    1.9161   -1.2361 N   0  0  0  0  0  0  0  0  0  0  0  0
   -3.8853   -0.4055   -1.4063 N   0  0  0  0  0  0  0  0  0  0  0  0
   -4.7072    1.5405   -0.2470 N   0  0  0  0  0  0  0  0  0  0  0  0
    5.2278   -1.3002    0.5221 C   0  0  1  0  0  0  0  0  0  0  0  0
    4.0907   -0.4438    1.0973 C   0  0  0  0  0  0  0  0  0  0  0  0
    6.4675   -0.4513    0.2251 C   0  0  0  0  0  0  0  0  0  0  0  0
    6.1035    0.7129   -0.6931 C   0  0  0  0  0  0  0  0  0  0  0  0
    4.9718    1.5475   -0.1003 C   0  0  0  0  0  0  0  0  0  0  0  0
    2.5391    1.1658    0.0220 C   0  0  0  0  0  0  0  0  0  0  0  0
    0.5148    1.1950   -0.8366 C   0  0  0  0  0  0  0  0  0  0  0  0
    0.7013    2.2236    0.0464 C   0  0  0  0  0  0  0  0  0  0  0  0
    2.0103   -0.6574   -1.6311 C   0  0  0  0  0  0  0  0  0  0  0  0
   -0.6950    0.9528   -1.5535 C   0  0  0  0  0  0  0  0  0  0  0  0
   -1.5587    3.0200   -0.3180 C   0  0  0  0  0  0  0  0  0  0  0  0
   -2.9761    1.7739   -1.9091 C   0  0  0  0  0  0  0  0  0  0  0  0
   -0.0548    4.2206    1.2740 C   0  0  0  0  0  0  0  0  0  0  0  0
    1.6858   -1.8938   -0.9142 C   0  0  0  0  0  0  0  0  0  0  0  0
   -3.9249    0.9093   -1.1305 C   0  0  0  0  0  0  0  0  0  0  0  0
   -4.7324   -1.1860   -0.7128 C   0  0  0  0  0  0  0  0  0  0  0  0
   -5.5427    0.7301    0.4296 C   0  0  0  0  0  0  0  0  0  0  0  0
   -5.6072   -0.6481    0.2452 C   0  0  0  0  0  0  0  0  0  0  0  0
    1.4201   -2.9073   -0.3276 C   0  0  0  0  0  0  0  0  0  0  0  0
   -4.7680   -2.5620   -0.9254 C   0  0  0  0  0  0  0  0  0  0  0  0
   -6.4886   -1.4738    0.9643 C   0  0  0  0  0  0  0  0  0  0  0  0
   -6.4213    1.4270    1.4189 C   0  0  0  0  0  0  0  0  0  0  0  0
    1.0963   -4.1399    0.3890 C   0  0  0  0  0  0  0  0  0  0  0  0
   -5.6415   -3.3899   -0.2142 C   0  0  0  0  0  0  0  0  0  0  0  0
   -6.5030   -2.8455    0.7318 C   0  0  0  0  0  0  0  0  0  0  0  0
    4.8863   -1.7624   -0.4121 H   0  0  0  0  0  0  0  0  0  0  0  0
    3.1949   -1.0551    1.2507 H   0  0  0  0  0  0  0  0  0  0  0  0
    4.3673   -0.0513    2.0853 H   0  0  0  0  0  0  0  0  0  0  0  0
    7.2441   -1.0615   -0.2516 H   0  0  0  0  0  0  0  0  0  0  0  0
    6.8952   -0.0570    1.1563 H   0  0  0  0  0  0  0  0  0  0  0  0
    5.3062    2.0521    0.8142 H   0  0  0  0  0  0  0  0  0  0  0  0
    4.6931    2.3273   -0.8199 H   0  0  0  0  0  0  0  0  0  0  0  0
    6.9830    1.3448   -0.8587 H   0  0  0  0  0  0  0  0  0  0  0  0
    5.7974    0.3210   -1.6712 H   0  0  0  0  0  0  0  0  0  0  0  0
    5.8988   -1.9680    2.3365 H   0  0  0  0  0  0  0  0  0  0  0  0
    6.3489   -2.9126    1.0886 H   0  0  0  0  0  0  0  0  0  0  0  0
    1.4776   -0.5961   -2.5839 H   0  0  0  0  0  0  0  0  0  0  0  0
    3.0746   -0.6280   -1.8883 H   0  0  0  0  0  0  0  0  0  0  0  0
   -2.8263    1.3411   -2.9056 H   0  0  0  0  0  0  0  0  0  0  0  0
   -3.4266    2.7611   -2.0661 H   0  0  0  0  0  0  0  0  0  0  0  0
   -0.9323    4.8615    1.3901 H   0  0  0  0  0  0  0  0  0  0  0  0
    0.7807    4.8281    0.9129 H   0  0  0  0  0  0  0  0  0  0  0  0
    0.1971    3.7873    2.2468 H   0  0  0  0  0  0  0  0  0  0  0  0
   -4.1035   -3.0129   -1.6601 H   0  0  0  0  0  0  0  0  0  0  0  0
   -7.1718   -1.0747    1.7087 H   0  0  0  0  0  0  0  0  0  0  0  0
   -6.2268    2.5054    1.4223 H   0  0  0  0  0  0  0  0  0  0  0  0
   -7.4773    1.2869    1.1662 H   0  0  0  0  0  0  0  0  0  0  0  0
   -6.2325    1.0587    2.4324 H   0  0  0  0  0  0  0  0  0  0  0  0
    1.2055   -5.0104   -0.2646 H   0  0  0  0  0  0  0  0  0  0  0  0
    1.7596   -4.2753    1.2487 H   0  0  0  0  0  0  0  0  0  0  0  0
    0.0656   -4.1176    0.7555 H   0  0  0  0  0  0  0  0  0  0  0  0
   -5.6463   -4.4597   -0.4019 H   0  0  0  0  0  0  0  0  0  0  0  0
   -7.1822   -3.4868    1.2851 H   0  0  0  0  0  0  0  0  0  0  0  0
  1 20  2  0  0  0  0
  2 21  2  0  0  0  0
  3 12  1  0  0  0  0
  3 15  1  0  0  0  0
  3 16  1  0  0  0  0
  4 16  1  0  0  0  0
  4 17  2  0  0  0  0
  4 19  1  0  0  0  0
  5 11  1  0  0  0  0
  5 45  1  0  0  0  0
  5 46  1  0  0  0  0
  6 16  2  0  0  0  0
  6 18  1  0  0  0  0
  7 18  2  0  0  0  0
  7 21  1  0  0  0  0
  7 23  1  0  0  0  0
  8 20  1  0  0  0  0
  8 21  1  0  0  0  0
  8 22  1  0  0  0  0
  9 25  2  0  0  0  0
  9 26  1  0  0  0  0
 10 25  1  0  0  0  0
 10 27  2  0  0  0  0
 11 12  1  0  0  0  0
 11 13  1  0  0  0  0
 11 36  1  6  0  0  0
 12 37  1  0  0  0  0
 12 38  1  0  0  0  0
 13 14  1  0  0  0  0
 13 39  1  0  0  0  0
 13 40  1  0  0  0  0
 14 15  1  0  0  0  0
 14 43  1  0  0  0  0
 14 44  1  0  0  0  0
 15 41  1  0  0  0  0
 15 42  1  0  0  0  0
 17 18  1  0  0  0  0
 17 20  1  0  0  0  0
 19 24  1  0  0  0  0
 19 47  1  0  0  0  0
 19 48  1  0  0  0  0
 22 25  1  0  0  0  0
 22 49  1  0  0  0  0
 22 50  1  0  0  0  0
 23 51  1  0  0  0  0
 23 52  1  0  0  0  0
 23 53  1  0  0  0  0
 24 29  3  0  0  0  0
 26 28  2  0  0  0  0
 26 30  1  0  0  0  0
 27 28  1  0  0  0  0
 27 32  1  0  0  0  0
 28 31  1  0  0  0  0
 29 33  1  0  0  0  0
 30 34  2  0  0  0  0
 30 54  1  0  0  0  0
 31 35  2  0  0  0  0
 31 55  1  0  0  0  0
 32 56  1  0  0  0  0
 32 57  1  0  0  0  0
 32 58  1  0  0  0  0
 33 59  1  0  0  0  0
 33 60  1  0  0  0  0
 33 61  1  0  0  0  0
 34 35  1  0  0  0  0
 34 62  1  0  0  0  0
 35 63  1  0  0  0  0
M  END
