DB08918
 OpenBabel07062211533D

 40 41  0  0  1  0  0  0  0  0999 V2000
   -0.9641   -0.7405   -1.7523 O   0  0  0  0  0  0  0  0  0  0  0  0
   -1.1998    1.1483   -0.4094 N   0  0  0  0  0  0  0  0  0  0  0  0
   -1.2261   -3.9155   -0.5118 N   0  0  0  0  0  0  0  0  0  0  0  0
    0.1967   -0.7737    0.2756 C   0  0  1  0  0  0  0  0  0  0  0  0
   -0.2372   -2.1081    0.7902 C   0  0  1  0  0  0  0  0  0  0  0  0
   -0.3265   -0.8957    1.6701 C   0  0  0  0  0  0  0  0  0  0  0  0
   -1.4937   -2.7372    0.3087 C   0  0  0  0  0  0  0  0  0  0  0  0
    1.6363   -0.4771    0.0789 C   0  0  0  0  0  0  0  0  0  0  0  0
   -0.7077   -0.1236   -0.7215 C   0  0  0  0  0  0  0  0  0  0  0  0
    2.2715   -0.8290   -1.1163 C   0  0  0  0  0  0  0  0  0  0  0  0
    2.3700    0.1544    1.0884 C   0  0  0  0  0  0  0  0  0  0  0  0
   -2.4931    1.6191   -0.8863 C   0  0  0  0  0  0  0  0  0  0  0  0
   -0.4509    2.0913    0.4159 C   0  0  0  0  0  0  0  0  0  0  0  0
    3.6262   -0.5522   -1.3004 C   0  0  0  0  0  0  0  0  0  0  0  0
    3.7248    0.4311    0.9042 C   0  0  0  0  0  0  0  0  0  0  0  0
    4.3527    0.0778   -0.2902 C   0  0  0  0  0  0  0  0  0  0  0  0
   -3.5839    1.2794    0.0767 C   0  0  0  0  0  0  0  0  0  0  0  0
    0.4363    2.9577   -0.4180 C   0  0  0  0  0  0  0  0  0  0  0  0
    0.5148   -2.8385    1.0723 H   0  0  0  0  0  0  0  0  0  0  0  0
   -1.3155   -0.5130    1.9030 H   0  0  0  0  0  0  0  0  0  0  0  0
    0.3192   -0.9073    2.5403 H   0  0  0  0  0  0  0  0  0  0  0  0
   -2.1916   -2.0698   -0.2022 H   0  0  0  0  0  0  0  0  0  0  0  0
   -2.0378   -3.0912    1.1932 H   0  0  0  0  0  0  0  0  0  0  0  0
    1.7242   -1.3286   -1.9114 H   0  0  0  0  0  0  0  0  0  0  0  0
    1.9233    0.4565    2.0301 H   0  0  0  0  0  0  0  0  0  0  0  0
   -0.7805   -3.6262   -1.3819 H   0  0  0  0  0  0  0  0  0  0  0  0
   -2.1099   -4.3481   -0.7779 H   0  0  0  0  0  0  0  0  0  0  0  0
   -2.4475    2.6974   -1.0726 H   0  0  0  0  0  0  0  0  0  0  0  0
   -2.7042    1.1318   -1.8449 H   0  0  0  0  0  0  0  0  0  0  0  0
   -1.1661    2.7151    0.9656 H   0  0  0  0  0  0  0  0  0  0  0  0
    0.1336    1.5877    1.1797 H   0  0  0  0  0  0  0  0  0  0  0  0
    4.1158   -0.8290   -2.2296 H   0  0  0  0  0  0  0  0  0  0  0  0
    4.2907    0.9238    1.6894 H   0  0  0  0  0  0  0  0  0  0  0  0
    5.4075    0.2935   -0.4337 H   0  0  0  0  0  0  0  0  0  0  0  0
   -3.6485    0.1983    0.2414 H   0  0  0  0  0  0  0  0  0  0  0  0
   -3.4214    1.7495    1.0523 H   0  0  0  0  0  0  0  0  0  0  0  0
   -4.5525    1.6198   -0.3026 H   0  0  0  0  0  0  0  0  0  0  0  0
    1.1564    2.3670   -0.9928 H   0  0  0  0  0  0  0  0  0  0  0  0
   -0.1407    3.5524   -1.1340 H   0  0  0  0  0  0  0  0  0  0  0  0
    0.9992    3.6524    0.2137 H   0  0  0  0  0  0  0  0  0  0  0  0
  1  9  2  0  0  0  0
  2  9  1  0  0  0  0
  2 12  1  0  0  0  0
  2 13  1  0  0  0  0
  3  7  1  0  0  0  0
  3 26  1  0  0  0  0
  3 27  1  0  0  0  0
  4  5  1  6  0  0  0
  4  6  1  0  0  0  0
  4  8  1  0  0  0  0
  4  9  1  0  0  0  0
  5  6  1  0  0  0  0
  5  7  1  0  0  0  0
  5 19  1  1  0  0  0
  6 20  1  0  0  0  0
  6 21  1  0  0  0  0
  7 22  1  0  0  0  0
  7 23  1  0  0  0  0
  8 10  2  0  0  0  0
  8 11  1  0  0  0  0
 10 14  1  0  0  0  0
 10 24  1  0  0  0  0
 11 15  2  0  0  0  0
 11 25  1  0  0  0  0
 12 17  1  0  0  0  0
 12 28  1  0  0  0  0
 12 29  1  0  0  0  0
 13 18  1  0  0  0  0
 13 30  1  0  0  0  0
 13 31  1  0  0  0  0
 14 16  2  0  0  0  0
 14 32  1  0  0  0  0
 15 16  1  0  0  0  0
 15 33  1  0  0  0  0
 16 34  1  0  0  0  0
 17 35  1  0  0  0  0
 17 36  1  0  0  0  0
 17 37  1  0  0  0  0
 18 38  1  0  0  0  0
 18 39  1  0  0  0  0
 18 40  1  0  0  0  0
M  END
