DB08822
 OpenBabel07062211533D

 66 71  0  0  0  0  0  0  0  0999 V2000
    0.8040    3.6767   -1.3826 O   0  0  0  0  0  0  0  0  0  0  0  0
    3.2483   -1.1887    0.9016 O   0  0  0  0  0  0  0  0  0  0  0  0
    1.0634   -1.5338    1.5391 O   0  0  0  0  0  0  0  0  0  0  0  0
    5.7410   -2.3897    0.4932 O   0  0  0  0  0  0  0  0  0  0  0  0
   -3.8436   -0.7958    3.8643 O   0  0  0  0  0  0  0  0  0  0  0  0
    6.3680   -3.3280   -1.5426 O   0  0  0  0  0  0  0  0  0  0  0  0
   -1.5727   -1.1089    3.7717 O   0  0  0  0  0  0  0  0  0  0  0  0
    7.9579   -2.6106   -0.0527 O   0  0  0  0  0  0  0  0  0  0  0  0
    1.3856    1.8357   -0.0133 N   0  0  0  0  0  0  0  0  0  0  0  0
    1.5127    3.8860    0.8354 N   0  0  0  0  0  0  0  0  0  0  0  0
   -4.8214   -0.8714    2.8932 N   0  0  0  0  0  0  0  0  0  0  0  0
   -2.9063   -1.3301    1.8738 N   0  0  0  0  0  0  0  0  0  0  0  0
    1.8184    1.6713    1.2776 C   0  0  0  0  0  0  0  0  0  0  0  0
    1.1449    0.7954   -0.9879 C   0  0  0  0  0  0  0  0  0  0  0  0
    1.8898    2.9653    1.7860 C   0  0  0  0  0  0  0  0  0  0  0  0
   -0.2754    0.3020   -0.9252 C   0  0  0  0  0  0  0  0  0  0  0  0
    1.2172    3.1750   -0.2297 C   0  0  0  0  0  0  0  0  0  0  0  0
    2.1436    0.5366    2.0214 C   0  0  0  0  0  0  0  0  0  0  0  0
   -0.5395   -1.0672   -0.9563 C   0  0  0  0  0  0  0  0  0  0  0  0
   -1.3275    1.2135   -0.8366 C   0  0  0  0  0  0  0  0  0  0  0  0
    2.3087    3.1575    3.1133 C   0  0  0  0  0  0  0  0  0  0  0  0
   -2.9080   -0.6135   -0.8104 C   0  0  0  0  0  0  0  0  0  0  0  0
    2.5583    0.7462    3.3407 C   0  0  0  0  0  0  0  0  0  0  0  0
   -1.8558   -1.5251   -0.8988 C   0  0  0  0  0  0  0  0  0  0  0  0
   -2.6438    0.7557   -0.7792 C   0  0  0  0  0  0  0  0  0  0  0  0
    2.6401    2.0326    3.8788 C   0  0  0  0  0  0  0  0  0  0  0  0
   -4.2731   -1.0885   -0.7520 C   0  0  0  0  0  0  0  0  0  0  0  0
    2.0683   -0.8091    1.4840 C   0  0  0  0  0  0  0  0  0  0  0  0
   -4.8909   -1.3651    0.4677 C   0  0  0  0  0  0  0  0  0  0  0  0
    0.6561    5.0944   -1.5176 C   0  0  0  0  0  0  0  0  0  0  0  0
   -4.9731   -1.2682   -1.9450 C   0  0  0  0  0  0  0  0  0  0  0  0
   -6.2086   -1.8216    0.4943 C   0  0  0  0  0  0  0  0  0  0  0  0
   -4.1952   -1.1916    1.7377 C   0  0  0  0  0  0  0  0  0  0  0  0
   -6.2909   -1.7249   -1.9182 C   0  0  0  0  0  0  0  0  0  0  0  0
    3.2991   -2.5009    0.3314 C   0  0  0  0  0  0  0  0  0  0  0  0
   -6.9087   -2.0016   -0.6987 C   0  0  0  0  0  0  0  0  0  0  0  0
    0.1900    5.4099   -2.9229 C   0  0  0  0  0  0  0  0  0  0  0  0
    4.6405   -2.7550   -0.2560 C   0  0  0  0  0  0  0  0  0  0  0  0
    4.9949   -3.2853   -1.4070 C   0  0  0  0  0  0  0  0  0  0  0  0
   -2.6616   -1.0837    3.2145 C   0  0  0  0  0  0  0  0  0  0  0  0
    4.1822   -3.8184   -2.5267 C   0  0  0  0  0  0  0  0  0  0  0  0
    6.7779   -2.7643   -0.3454 C   0  0  0  0  0  0  0  0  0  0  0  0
    1.8839    0.0029   -0.8726 H   0  0  0  0  0  0  0  0  0  0  0  0
    1.3249    1.2181   -1.9846 H   0  0  0  0  0  0  0  0  0  0  0  0
    0.2672   -1.7890   -1.0438 H   0  0  0  0  0  0  0  0  0  0  0  0
   -1.1810    2.2854   -0.8273 H   0  0  0  0  0  0  0  0  0  0  0  0
    2.3755    4.1528    3.5408 H   0  0  0  0  0  0  0  0  0  0  0  0
    2.8247   -0.1023    3.9678 H   0  0  0  0  0  0  0  0  0  0  0  0
   -2.0440   -2.5958   -0.9293 H   0  0  0  0  0  0  0  0  0  0  0  0
   -3.4531    1.4793   -0.7136 H   0  0  0  0  0  0  0  0  0  0  0  0
    2.9660    2.1639    4.9075 H   0  0  0  0  0  0  0  0  0  0  0  0
   -0.0815    5.4559   -0.7919 H   0  0  0  0  0  0  0  0  0  0  0  0
    1.6183    5.5837   -1.3277 H   0  0  0  0  0  0  0  0  0  0  0  0
   -4.5082   -1.0580   -2.9055 H   0  0  0  0  0  0  0  0  0  0  0  0
   -6.7116   -2.0555    1.4287 H   0  0  0  0  0  0  0  0  0  0  0  0
   -6.8359   -1.8656   -2.8471 H   0  0  0  0  0  0  0  0  0  0  0  0
    2.5155   -2.5898   -0.4273 H   0  0  0  0  0  0  0  0  0  0  0  0
    3.1112   -3.2361    1.1224 H   0  0  0  0  0  0  0  0  0  0  0  0
   -7.9339   -2.3595   -0.6785 H   0  0  0  0  0  0  0  0  0  0  0  0
    0.9103    5.0397   -3.6599 H   0  0  0  0  0  0  0  0  0  0  0  0
   -0.7631    4.9135   -3.1330 H   0  0  0  0  0  0  0  0  0  0  0  0
    0.0653    6.4875   -3.0611 H   0  0  0  0  0  0  0  0  0  0  0  0
   -5.7890   -0.6616    3.0969 H   0  0  0  0  0  0  0  0  0  0  0  0
    4.4372   -4.8663   -2.7140 H   0  0  0  0  0  0  0  0  0  0  0  0
    3.1094   -3.7675   -2.3206 H   0  0  0  0  0  0  0  0  0  0  0  0
    4.3770   -3.2488   -3.4409 H   0  0  0  0  0  0  0  0  0  0  0  0
  1 17  1  0  0  0  0
  1 30  1  0  0  0  0
  2 28  1  0  0  0  0
  2 35  1  0  0  0  0
  3 28  2  0  0  0  0
  4 38  1  0  0  0  0
  4 42  1  0  0  0  0
  5 11  1  0  0  0  0
  5 40  1  0  0  0  0
  6 39  1  0  0  0  0
  6 42  1  0  0  0  0
  7 40  2  0  0  0  0
  8 42  2  0  0  0  0
  9 13  1  0  0  0  0
  9 14  1  0  0  0  0
  9 17  1  0  0  0  0
 10 15  1  0  0  0  0
 10 17  2  0  0  0  0
 11 33  1  0  0  0  0
 11 63  1  0  0  0  0
 12 33  2  0  0  0  0
 12 40  1  0  0  0  0
 13 15  2  0  0  0  0
 13 18  1  0  0  0  0
 14 16  1  0  0  0  0
 14 43  1  0  0  0  0
 14 44  1  0  0  0  0
 15 21  1  0  0  0  0
 16 19  2  0  0  0  0
 16 20  1  0  0  0  0
 18 23  2  0  0  0  0
 18 28  1  0  0  0  0
 19 24  1  0  0  0  0
 19 45  1  0  0  0  0
 20 25  2  0  0  0  0
 20 46  1  0  0  0  0
 21 26  2  0  0  0  0
 21 47  1  0  0  0  0
 22 24  2  0  0  0  0
 22 25  1  0  0  0  0
 22 27  1  0  0  0  0
 23 26  1  0  0  0  0
 23 48  1  0  0  0  0
 24 49  1  0  0  0  0
 25 50  1  0  0  0  0
 26 51  1  0  0  0  0
 27 29  2  0  0  0  0
 27 31  1  0  0  0  0
 29 32  1  0  0  0  0
 29 33  1  0  0  0  0
 30 37  1  0  0  0  0
 30 52  1  0  0  0  0
 30 53  1  0  0  0  0
 31 34  2  0  0  0  0
 31 54  1  0  0  0  0
 32 36  2  0  0  0  0
 32 55  1  0  0  0  0
 34 36  1  0  0  0  0
 34 56  1  0  0  0  0
 35 38  1  0  0  0  0
 35 57  1  0  0  0  0
 35 58  1  0  0  0  0
 36 59  1  0  0  0  0
 37 60  1  0  0  0  0
 37 61  1  0  0  0  0
 37 62  1  0  0  0  0
 38 39  2  0  0  0  0
 39 41  1  0  0  0  0
 41 64  1  0  0  0  0
 41 65  1  0  0  0  0
 41 66  1  0  0  0  0
M  END
