DB08943
 OpenBabel07062211533D

 39 41  0  0  1  0  0  0  0  0999 V2000
   -2.5649    0.0496   -2.8212 Cl  0  0  0  0  0  0  0  0  0  0  0  0
   -5.1651    3.5292    0.3570 Cl  0  0  0  0  0  0  0  0  0  0  0  0
    2.9741   -0.5051   -2.2020 Cl  0  0  0  0  0  0  0  0  0  0  0  0
    0.6479    3.0697    1.1954 Cl  0  0  0  0  0  0  0  0  0  0  0  0
    0.2356   -0.2611    0.0407 O   0  0  0  0  0  0  0  0  0  0  0  0
   -0.3253   -3.0826    0.4751 N   0  0  0  0  0  0  0  0  0  0  0  0
    0.6096   -4.9186   -0.3142 N   0  0  0  0  0  0  0  0  0  0  0  0
   -1.0546   -0.8027   -0.2730 C   0  0  1  0  0  0  0  0  0  0  0  0
   -1.3018   -2.0141    0.6490 C   0  0  0  0  0  0  0  0  0  0  0  0
   -2.0842    0.2736   -0.1483 C   0  0  0  0  0  0  0  0  0  0  0  0
    0.5716    0.7962   -0.8402 C   0  0  0  0  0  0  0  0  0  0  0  0
   -2.8138    0.7200   -1.2502 C   0  0  0  0  0  0  0  0  0  0  0  0
   -2.3075    0.8338    1.1095 C   0  0  0  0  0  0  0  0  0  0  0  0
    1.9257    1.3281   -0.4727 C   0  0  0  0  0  0  0  0  0  0  0  0
    0.8443   -3.2067    1.1528 C   0  0  0  0  0  0  0  0  0  0  0  0
   -0.4332   -4.1220   -0.3924 C   0  0  0  0  0  0  0  0  0  0  0  0
   -3.7666    1.7268   -1.0943 C   0  0  0  0  0  0  0  0  0  0  0  0
   -3.2602    1.8404    1.2654 C   0  0  0  0  0  0  0  0  0  0  0  0
   -3.9898    2.2871    0.1635 C   0  0  0  0  0  0  0  0  0  0  0  0
    1.4095   -4.3540    0.6476 C   0  0  0  0  0  0  0  0  0  0  0  0
    3.0686    0.7832   -1.0557 C   0  0  0  0  0  0  0  0  0  0  0  0
    2.0382    2.3664    0.4507 C   0  0  0  0  0  0  0  0  0  0  0  0
    4.3274    1.2779   -0.7144 C   0  0  0  0  0  0  0  0  0  0  0  0
    3.2971    2.8608    0.7919 C   0  0  0  0  0  0  0  0  0  0  0  0
    4.4417    2.3167    0.2092 C   0  0  0  0  0  0  0  0  0  0  0  0
   -0.9811   -1.2076   -1.2867 H   0  0  0  0  0  0  0  0  0  0  0  0
   -1.2496   -1.7335    1.7079 H   0  0  0  0  0  0  0  0  0  0  0  0
   -2.2931   -2.4473    0.4689 H   0  0  0  0  0  0  0  0  0  0  0  0
   -0.1516    1.6162   -0.8240 H   0  0  0  0  0  0  0  0  0  0  0  0
    0.5518    0.4423   -1.8775 H   0  0  0  0  0  0  0  0  0  0  0  0
   -1.7429    0.5119    1.9801 H   0  0  0  0  0  0  0  0  0  0  0  0
    1.1709   -2.5031    1.9057 H   0  0  0  0  0  0  0  0  0  0  0  0
   -1.2785   -4.2536   -1.0540 H   0  0  0  0  0  0  0  0  0  0  0  0
   -4.3366    2.0765   -1.9527 H   0  0  0  0  0  0  0  0  0  0  0  0
   -3.4210    2.2701    2.2508 H   0  0  0  0  0  0  0  0  0  0  0  0
    2.3523   -4.8013    0.9268 H   0  0  0  0  0  0  0  0  0  0  0  0
    5.2294    0.8647   -1.1588 H   0  0  0  0  0  0  0  0  0  0  0  0
    3.4037    3.6701    1.5099 H   0  0  0  0  0  0  0  0  0  0  0  0
    5.4219    2.7018    0.4748 H   0  0  0  0  0  0  0  0  0  0  0  0
  1 12  1  0  0  0  0
  2 19  1  0  0  0  0
  3 21  1  0  0  0  0
  4 22  1  0  0  0  0
  5  8  1  0  0  0  0
  5 11  1  0  0  0  0
  6  9  1  0  0  0  0
  6 15  1  0  0  0  0
  6 16  2  0  0  0  0
  7 16  1  0  0  0  0
  7 20  2  0  0  0  0
  8  9  1  0  0  0  0
  8 10  1  0  0  0  0
  8 26  1  6  0  0  0
  9 27  1  0  0  0  0
  9 28  1  0  0  0  0
 10 12  2  0  0  0  0
 10 13  1  0  0  0  0
 11 14  1  0  0  0  0
 11 29  1  0  0  0  0
 11 30  1  0  0  0  0
 12 17  1  0  0  0  0
 13 18  2  0  0  0  0
 13 31  1  0  0  0  0
 14 21  2  0  0  0  0
 14 22  1  0  0  0  0
 15 20  1  0  0  0  0
 15 32  1  0  0  0  0
 16 33  1  0  0  0  0
 17 19  2  0  0  0  0
 17 34  1  0  0  0  0
 18 19  1  0  0  0  0
 18 35  1  0  0  0  0
 20 36  1  0  0  0  0
 21 23  1  0  0  0  0
 22 24  2  0  0  0  0
 23 25  2  0  0  0  0
 23 37  1  0  0  0  0
 24 25  1  0  0  0  0
 24 38  1  0  0  0  0
 25 39  1  0  0  0  0
M  END
