DB08842
 OpenBabel07062211533D

 31 30  0  0  1  0  0  0  0  0999 V2000
   -1.0860   -0.4615   -0.0567 O   0  0  0  0  0  0  0  0  0  0  0  0
   -2.2682    3.5297   -1.0143 O   0  0  0  0  0  0  0  0  0  0  0  0
   -1.9905    1.4160   -1.8310 O   0  0  0  0  0  0  0  0  0  0  0  0
   -2.8457   -0.4892    1.4399 O   0  0  0  0  0  0  0  0  0  0  0  0
    1.7210   -0.1305   -0.0441 N   0  3  0  0  0  0  0  0  0  0  0  0
    0.7624    1.0499   -0.1101 C   0  0  0  0  0  0  0  0  0  0  0  0
   -0.5673    0.7154    0.5636 C   0  0  1  0  0  0  0  0  0  0  0  0
    1.9718   -0.4996    1.4109 C   0  0  0  0  0  0  0  0  0  0  0  0
    1.1111   -1.3202   -0.7714 C   0  0  0  0  0  0  0  0  0  0  0  0
    3.0383    0.2480   -0.7057 C   0  0  0  0  0  0  0  0  0  0  0  0
   -1.5990    1.8419    0.4831 C   0  0  0  0  0  0  0  0  0  0  0  0
   -1.9884    2.2985   -0.9301 C   0  0  0  0  0  0  0  0  0  0  0  0
   -2.2355   -0.9565    0.4878 C   0  0  0  0  0  0  0  0  0  0  0  0
   -2.6602   -2.1836   -0.2605 C   0  0  0  0  0  0  0  0  0  0  0  0
    0.6339    1.2839   -1.1730 H   0  0  0  0  0  0  0  0  0  0  0  0
    1.2466    1.9035    0.3791 H   0  0  0  0  0  0  0  0  0  0  0  0
   -0.4058    0.5135    1.6287 H   0  0  0  0  0  0  0  0  0  0  0  0
    1.0774   -0.9477    1.8500 H   0  0  0  0  0  0  0  0  0  0  0  0
    2.7811   -1.2365    1.4364 H   0  0  0  0  0  0  0  0  0  0  0  0
    2.2711    0.4015    1.9542 H   0  0  0  0  0  0  0  0  0  0  0  0
    1.9403   -1.9623   -1.0929 H   0  0  0  0  0  0  0  0  0  0  0  0
    0.5154   -1.9344   -0.0923 H   0  0  0  0  0  0  0  0  0  0  0  0
    0.5859   -0.9841   -1.6707 H   0  0  0  0  0  0  0  0  0  0  0  0
    2.8404    0.4894   -1.7543 H   0  0  0  0  0  0  0  0  0  0  0  0
    3.4501    1.1163   -0.1828 H   0  0  0  0  0  0  0  0  0  0  0  0
    3.7263   -0.5995   -0.6315 H   0  0  0  0  0  0  0  0  0  0  0  0
   -2.5348    1.6395    1.0070 H   0  0  0  0  0  0  0  0  0  0  0  0
   -1.1682    2.7127    0.9976 H   0  0  0  0  0  0  0  0  0  0  0  0
   -1.9192   -2.9752   -0.1254 H   0  0  0  0  0  0  0  0  0  0  0  0
   -2.7832   -1.9477   -1.3207 H   0  0  0  0  0  0  0  0  0  0  0  0
   -3.6212   -2.5312    0.1293 H   0  0  0  0  0  0  0  0  0  0  0  0
  1  7  1  0  0  0  0
  1 13  1  0  0  0  0
  2 12  2  0  0  0  0
  3 12  1  0  0  0  0
  4 13  2  0  0  0  0
  5  6  1  0  0  0  0
  5  8  1  0  0  0  0
  5  9  1  0  0  0  0
  5 10  1  0  0  0  0
  6  7  1  0  0  0  0
  6 15  1  0  0  0  0
  6 16  1  0  0  0  0
  7 11  1  0  0  0  0
  7 17  1  1  0  0  0
  8 18  1  0  0  0  0
  8 19  1  0  0  0  0
  8 20  1  0  0  0  0
  9 21  1  0  0  0  0
  9 22  1  0  0  0  0
  9 23  1  0  0  0  0
 10 24  1  0  0  0  0
 10 25  1  0  0  0  0
 10 26  1  0  0  0  0
 11 12  1  0  0  0  0
 11 27  1  0  0  0  0
 11 28  1  0  0  0  0
 13 14  1  0  0  0  0
 14 29  1  0  0  0  0
 14 30  1  0  0  0  0
 14 31  1  0  0  0  0
M  CHG  1   5   1
M  END
