DB08931
 OpenBabel07062211533D

 50 53  0  0  0  0  0  0  0  0999 V2000
    6.1452   -0.7075   -0.1938 F   0  0  0  0  0  0  0  0  0  0  0  0
   -6.4981    0.6467   -0.7529 O   0  0  0  0  0  0  0  0  0  0  0  0
   -4.6462    0.0464   -1.9255 O   0  0  0  0  0  0  0  0  0  0  0  0
    2.9966   -0.3079    1.0786 N   0  0  0  0  0  0  0  0  0  0  0  0
    1.7940    0.2914    1.1466 N   0  0  0  0  0  0  0  0  0  0  0  0
    3.9867   -2.4176    0.4310 N   0  0  0  0  0  0  0  0  0  0  0  0
   -0.8518    0.8462    1.0178 N   0  0  0  0  0  0  0  0  0  0  0  0
   -1.2314   -1.3735    0.1601 N   0  0  0  0  0  0  0  0  0  0  0  0
   -4.4549    0.3915    0.4039 N   0  0  0  0  0  0  0  0  0  0  0  0
   -2.6646    2.3360    1.3343 N   0  0  0  0  0  0  0  0  0  0  0  0
   -3.4228   -2.0937   -0.3758 N   0  0  0  0  0  0  0  0  0  0  0  0
    1.6084   -1.8422    0.3427 C   0  0  0  0  0  0  0  0  0  0  0  0
    2.9451   -1.5856    0.6045 C   0  0  0  0  0  0  0  0  0  0  0  0
    4.1758    0.4143    1.4943 C   0  0  0  0  0  0  0  0  0  0  0  0
    0.9532   -0.6463    0.6979 C   0  0  0  0  0  0  0  0  0  0  0  0
    4.7921    1.1668    0.3461 C   0  0  0  0  0  0  0  0  0  0  0  0
   -0.4594   -0.3753    0.6204 C   0  0  0  0  0  0  0  0  0  0  0  0
    1.2690   -3.1037   -0.1616 C   0  0  0  0  0  0  0  0  0  0  0  0
   -3.0850    0.1282    0.4796 C   0  0  0  0  0  0  0  0  0  0  0  0
    2.3088   -4.0116   -0.3632 C   0  0  0  0  0  0  0  0  0  0  0  0
    5.7551    0.5506   -0.4417 C   0  0  0  0  0  0  0  0  0  0  0  0
    4.3881    2.4704    0.0908 C   0  0  0  0  0  0  0  0  0  0  0  0
   -2.1803    1.0658    0.9338 C   0  0  0  0  0  0  0  0  0  0  0  0
   -2.5482   -1.0858    0.1023 C   0  0  0  0  0  0  0  0  0  0  0  0
    3.6092   -3.6237   -0.0578 C   0  0  0  0  0  0  0  0  0  0  0  0
    6.3246    1.2512   -1.5049 C   0  0  0  0  0  0  0  0  0  0  0  0
    4.9579    3.1709   -0.9725 C   0  0  0  0  0  0  0  0  0  0  0  0
    5.9260    2.5614   -1.7701 C   0  0  0  0  0  0  0  0  0  0  0  0
   -5.2485    0.7511    1.6176 C   0  0  0  0  0  0  0  0  0  0  0  0
   -5.1653    0.3283   -0.8480 C   0  0  0  0  0  0  0  0  0  0  0  0
   -7.2466    0.6320   -1.9746 C   0  0  0  0  0  0  0  0  0  0  0  0
    4.8858   -0.2992    1.9287 H   0  0  0  0  0  0  0  0  0  0  0  0
    3.8919    1.0960    2.3057 H   0  0  0  0  0  0  0  0  0  0  0  0
    0.2501   -3.3910   -0.3948 H   0  0  0  0  0  0  0  0  0  0  0  0
    2.1056   -5.0039   -0.7519 H   0  0  0  0  0  0  0  0  0  0  0  0
    3.6343    2.9547    0.7052 H   0  0  0  0  0  0  0  0  0  0  0  0
    4.4289   -4.3209   -0.2102 H   0  0  0  0  0  0  0  0  0  0  0  0
    7.0783    0.7765   -2.1260 H   0  0  0  0  0  0  0  0  0  0  0  0
    4.6474    4.1909   -1.1793 H   0  0  0  0  0  0  0  0  0  0  0  0
    6.3696    3.1068   -2.5980 H   0  0  0  0  0  0  0  0  0  0  0  0
   -5.5930    1.7845    1.5188 H   0  0  0  0  0  0  0  0  0  0  0  0
   -4.6421    0.6327    2.5199 H   0  0  0  0  0  0  0  0  0  0  0  0
   -6.1166    0.0877    1.6805 H   0  0  0  0  0  0  0  0  0  0  0  0
   -1.9745    2.9995    1.6652 H   0  0  0  0  0  0  0  0  0  0  0  0
   -3.4798    2.7037    0.8591 H   0  0  0  0  0  0  0  0  0  0  0  0
   -4.3654   -2.1197   -0.0063 H   0  0  0  0  0  0  0  0  0  0  0  0
   -2.9973   -2.9723   -0.6457 H   0  0  0  0  0  0  0  0  0  0  0  0
   -7.2356   -0.3704   -2.4127 H   0  0  0  0  0  0  0  0  0  0  0  0
   -6.8404    1.3673   -2.6757 H   0  0  0  0  0  0  0  0  0  0  0  0
   -8.2801    0.9022   -1.7421 H   0  0  0  0  0  0  0  0  0  0  0  0
  1 21  1  0  0  0  0
  2 30  1  0  0  0  0
  2 31  1  0  0  0  0
  3 30  2  0  0  0  0
  4  5  1  0  0  0  0
  4 13  2  0  0  0  0
  4 14  1  0  0  0  0
  5 15  1  0  0  0  0
  6 13  1  0  0  0  0
  6 25  2  0  0  0  0
  7 17  2  0  0  0  0
  7 23  1  0  0  0  0
  8 17  1  0  0  0  0
  8 24  2  0  0  0  0
  9 19  1  0  0  0  0
  9 29  1  0  0  0  0
  9 30  1  0  0  0  0
 10 23  1  0  0  0  0
 10 44  1  0  0  0  0
 10 45  1  0  0  0  0
 11 24  1  0  0  0  0
 11 46  1  0  0  0  0
 11 47  1  0  0  0  0
 12 13  1  0  0  0  0
 12 15  2  0  0  0  0
 12 18  1  0  0  0  0
 14 16  1  0  0  0  0
 14 32  1  0  0  0  0
 14 33  1  0  0  0  0
 15 17  1  0  0  0  0
 16 21  2  0  0  0  0
 16 22  1  0  0  0  0
 18 20  2  0  0  0  0
 18 34  1  0  0  0  0
 19 23  2  0  0  0  0
 19 24  1  0  0  0  0
 20 25  1  0  0  0  0
 20 35  1  0  0  0  0
 21 26  1  0  0  0  0
 22 27  2  0  0  0  0
 22 36  1  0  0  0  0
 25 37  1  0  0  0  0
 26 28  2  0  0  0  0
 26 38  1  0  0  0  0
 27 28  1  0  0  0  0
 27 39  1  0  0  0  0
 28 40  1  0  0  0  0
 29 41  1  0  0  0  0
 29 42  1  0  0  0  0
 29 43  1  0  0  0  0
 31 48  1  0  0  0  0
 31 49  1  0  0  0  0
 31 50  1  0  0  0  0
M  END
