DB08906
 OpenBabel07062211533D

 66 70  0  0  1  0  0  0  0  0999 V2000
    3.1578    2.3577   -1.5587 S   0  0  0  0  0  0  0  0  0  0  0  0
   -1.7656   -1.0051   -0.9881 F   0  0  0  0  0  0  0  0  0  0  0  0
   -4.0721   -2.1073    2.5169 F   0  0  0  0  0  0  0  0  0  0  0  0
    4.6185    4.1640   -2.7201 F   0  0  0  0  0  0  0  0  0  0  0  0
    2.5490   -0.3163   -0.5716 O   0  0  0  0  0  0  0  0  0  0  0  0
   -1.8131    2.5849   -0.9528 O   0  0  0  0  0  0  0  0  0  0  0  0
    3.9962    2.1614    0.9386 O   0  0  0  0  0  0  0  0  0  0  0  0
    4.7786   -0.1900   -0.0499 O   0  0  0  0  0  0  0  0  0  0  0  0
   -6.2247   -2.7614   -1.8409 O   0  0  0  0  0  0  0  0  0  0  0  0
    5.0652   -2.8175   -0.8781 O   0  0  0  0  0  0  0  0  0  0  0  0
    0.7156    1.1548    0.2324 C   0  0  1  0  0  0  0  0  0  0  0  0
    0.0136   -0.0097    0.9640 C   0  0  2  0  0  0  0  0  0  0  0  0
   -1.5135    0.1450    1.0507 C   0  0  1  0  0  0  0  0  0  0  0  0
   -2.1034    0.2061   -0.4000 C   0  0  1  0  0  0  0  0  0  0  0  0
    2.1946    0.6827    0.3765 C   0  0  1  0  0  0  0  0  0  0  0  0
    0.8158   -0.1621    2.2559 C   0  0  0  0  0  0  0  0  0  0  0  0
    0.1597    1.2038   -1.2059 C   0  0  0  0  0  0  0  0  0  0  0  0
    2.2757    0.1746    1.8488 C   0  0  1  0  0  0  0  0  0  0  0  0
   -1.3827    1.2719   -1.2811 C   0  0  2  0  0  0  0  0  0  0  0  0
   -3.6830    0.2447   -0.4047 C   0  0  1  0  0  0  0  0  0  0  0  0
   -2.1222   -1.0219    1.8469 C   0  0  0  0  0  0  0  0  0  0  0  0
    0.5151    2.5267    0.9320 C   0  0  0  0  0  0  0  0  0  0  0  0
   -3.6441   -0.9946    1.8513 C   0  0  1  0  0  0  0  0  0  0  0  0
   -4.1746   -0.9393    0.4404 C   0  0  0  0  0  0  0  0  0  0  0  0
    3.2188   -1.0044    2.0705 C   0  0  0  0  0  0  0  0  0  0  0  0
    3.2072    1.7508    0.0962 C   0  0  0  0  0  0  0  0  0  0  0  0
   -4.2797    1.5402    0.1911 C   0  0  0  0  0  0  0  0  0  0  0  0
   -4.2025    0.1565   -1.8325 C   0  0  0  0  0  0  0  0  0  0  0  0
   -4.9874   -1.8990   -0.0292 C   0  0  0  0  0  0  0  0  0  0  0  0
   -5.0096   -0.7984   -2.3040 C   0  0  0  0  0  0  0  0  0  0  0  0
    3.8187   -0.8271   -0.4714 C   0  0  0  0  0  0  0  0  0  0  0  0
   -5.4701   -1.8886   -1.4254 C   0  0  0  0  0  0  0  0  0  0  0  0
    4.4802    3.5838   -1.4981 C   0  0  0  0  0  0  0  0  0  0  0  0
    3.8687   -2.2157   -0.9311 C   0  0  0  0  0  0  0  0  0  0  0  0
    2.8902   -3.0111   -1.4103 C   0  0  0  0  0  0  0  0  0  0  0  0
    3.5286   -4.2428   -1.6903 C   0  0  0  0  0  0  0  0  0  0  0  0
    4.8505   -4.0739   -1.3494 C   0  0  0  0  0  0  0  0  0  0  0  0
    0.1974   -0.9345    0.3924 H   0  0  0  0  0  0  0  0  0  0  0  0
   -1.7576    1.0683    1.5854 H   0  0  0  0  0  0  0  0  0  0  0  0
    0.7190   -1.1717    2.6692 H   0  0  0  0  0  0  0  0  0  0  0  0
    0.4647    0.5402    3.0210 H   0  0  0  0  0  0  0  0  0  0  0  0
    0.4772    0.3130   -1.7617 H   0  0  0  0  0  0  0  0  0  0  0  0
    0.5334    2.0783   -1.7429 H   0  0  0  0  0  0  0  0  0  0  0  0
    2.6016    0.9769    2.5239 H   0  0  0  0  0  0  0  0  0  0  0  0
   -1.6359    1.0964   -2.3340 H   0  0  0  0  0  0  0  0  0  0  0  0
   -1.7792   -1.9825    1.4396 H   0  0  0  0  0  0  0  0  0  0  0  0
   -1.7714   -0.9991    2.8858 H   0  0  0  0  0  0  0  0  0  0  0  0
   -0.5353    2.7590    1.1187 H   0  0  0  0  0  0  0  0  0  0  0  0
    0.9135    3.3440    0.3213 H   0  0  0  0  0  0  0  0  0  0  0  0
    1.0163    2.5832    1.9031 H   0  0  0  0  0  0  0  0  0  0  0  0
   -4.0085   -0.1348    2.4227 H   0  0  0  0  0  0  0  0  0  0  0  0
    3.1095   -1.3093    3.1223 H   0  0  0  0  0  0  0  0  0  0  0  0
    4.2769   -0.7522    2.0064 H   0  0  0  0  0  0  0  0  0  0  0  0
    2.9404   -1.9040    1.5198 H   0  0  0  0  0  0  0  0  0  0  0  0
   -4.2157    2.3899   -0.4959 H   0  0  0  0  0  0  0  0  0  0  0  0
   -3.7932    1.8373    1.1249 H   0  0  0  0  0  0  0  0  0  0  0  0
   -5.3478    1.4149    0.4135 H   0  0  0  0  0  0  0  0  0  0  0  0
   -3.9159    0.9477   -2.5218 H   0  0  0  0  0  0  0  0  0  0  0  0
   -2.4215    2.8784   -1.6519 H   0  0  0  0  0  0  0  0  0  0  0  0
   -5.3118   -2.7294    0.5886 H   0  0  0  0  0  0  0  0  0  0  0  0
   -5.3521   -0.7910   -3.3323 H   0  0  0  0  0  0  0  0  0  0  0  0
    4.2471    4.3701   -0.7755 H   0  0  0  0  0  0  0  0  0  0  0  0
    5.4329    3.1146   -1.2393 H   0  0  0  0  0  0  0  0  0  0  0  0
    1.8463   -2.7698   -1.5514 H   0  0  0  0  0  0  0  0  0  0  0  0
    3.0814   -5.1412   -2.0901 H   0  0  0  0  0  0  0  0  0  0  0  0
    5.7185   -4.7161   -1.3802 H   0  0  0  0  0  0  0  0  0  0  0  0
  1 26  1  0  0  0  0
  1 33  1  0  0  0  0
  2 14  1  0  0  0  0
  3 23  1  0  0  0  0
  4 33  1  0  0  0  0
  5 15  1  0  0  0  0
  5 31  1  0  0  0  0
  6 19  1  0  0  0  0
  6 59  1  0  0  0  0
  7 26  2  0  0  0  0
  8 31  2  0  0  0  0
  9 32  2  0  0  0  0
 10 34  1  0  0  0  0
 10 37  1  0  0  0  0
 11 12  1  1  0  0  0
 11 17  1  0  0  0  0
 11 22  1  0  0  0  0
 12 13  1  1  0  0  0
 12 16  1  0  0  0  0
 12 38  1  0  0  0  0
 13 14  1  6  0  0  0
 13 21  1  0  0  0  0
 13 39  1  0  0  0  0
 14 19  1  6  0  0  0
 15 11  1  6  0  0  0
 15 26  1  0  0  0  0
 16 18  1  0  0  0  0
 16 40  1  0  0  0  0
 16 41  1  0  0  0  0
 17 19  1  0  0  0  0
 17 42  1  0  0  0  0
 17 43  1  0  0  0  0
 18 15  1  6  0  0  0
 18 25  1  0  0  0  0
 18 44  1  0  0  0  0
 19 45  1  6  0  0  0
 20 14  1  1  0  0  0
 20 24  1  0  0  0  0
 20 27  1  0  0  0  0
 20 28  1  0  0  0  0
 21 23  1  0  0  0  0
 21 46  1  0  0  0  0
 21 47  1  0  0  0  0
 22 48  1  0  0  0  0
 22 49  1  0  0  0  0
 22 50  1  0  0  0  0
 23 24  1  0  0  0  0
 23 51  1  1  0  0  0
 24 29  2  0  0  0  0
 25 52  1  0  0  0  0
 25 53  1  0  0  0  0
 25 54  1  0  0  0  0
 27 55  1  0  0  0  0
 27 56  1  0  0  0  0
 27 57  1  0  0  0  0
 28 30  2  0  0  0  0
 28 58  1  0  0  0  0
 29 32  1  0  0  0  0
 29 60  1  0  0  0  0
 30 32  1  0  0  0  0
 30 61  1  0  0  0  0
 31 34  1  0  0  0  0
 33 62  1  0  0  0  0
 33 63  1  0  0  0  0
 34 35  2  0  0  0  0
 35 36  1  0  0  0  0
 35 64  1  0  0  0  0
 36 37  2  0  0  0  0
 36 65  1  0  0  0  0
 37 66  1  0  0  0  0
M  END
