DB08965
 OpenBabel07062211533D

102102  0  0  1  0  0  0  0  0999 V2000
   -2.9420    1.3477    0.6225 O   0  0  0  0  0  0  0  0  0  0  0  0
    2.2276    1.3032    0.3984 O   0  0  0  0  0  0  0  0  0  0  0  0
    0.0206   -2.6250   -1.0327 O   0  0  0  0  0  0  0  0  0  0  0  0
   -1.0505    1.5545   -1.1376 O   0  0  0  0  0  0  0  0  0  0  0  0
   -2.4749   -0.8779   -1.9910 O   0  0  0  0  0  0  0  0  0  0  0  0
    3.8558   -1.1786   -0.9028 O   0  0  0  0  0  0  0  0  0  0  0  0
   -1.7834   -0.1327    1.9585 O   0  0  0  0  0  0  0  0  0  0  0  0
    3.1678    1.5968   -1.6826 O   0  0  0  0  0  0  0  0  0  0  0  0
    0.7036   -4.8019   -1.2989 O   0  0  0  0  0  0  0  0  0  0  0  0
    0.2864    3.0384    0.0287 N   0  0  0  0  0  0  0  0  0  0  0  0
   -2.7296   -1.9927    0.0286 N   0  0  0  0  0  0  0  0  0  0  0  0
    2.1248   -1.9092    0.4688 N   0  0  0  0  0  0  0  0  0  0  0  0
    1.3066    2.9897   -1.0411 C   0  0  1  0  0  0  0  0  0  0  0  0
   -3.6017   -0.9161    0.5430 C   0  0  1  0  0  0  0  0  0  0  0  0
    2.1412   -3.2730   -0.1002 C   0  0  1  0  0  0  0  0  0  0  0  0
    2.0265    4.3192   -1.2654 C   0  0  0  0  0  0  0  0  0  0  0  0
   -4.6528   -1.3380    1.5625 C   0  0  0  0  0  0  0  0  0  0  0  0
    2.4696   -4.3171    0.9681 C   0  0  0  0  0  0  0  0  0  0  0  0
   -1.9942    2.4037    0.8907 C   0  0  2  0  0  0  0  0  0  0  0  0
    3.1881    0.3287    0.8424 C   0  0  2  0  0  0  0  0  0  0  0  0
   -1.2010   -2.8875   -1.7500 C   0  0  2  0  0  0  0  0  0  0  0  0
   -2.7450    3.7186    0.7363 C   0  0  0  0  0  0  0  0  0  0  0  0
    4.6063    0.8998    0.8682 C   0  0  0  0  0  0  0  0  0  0  0  0
   -0.9285   -2.7545   -3.2459 C   0  0  0  0  0  0  0  0  0  0  0  0
   -0.8836    2.2892   -0.1571 C   0  0  0  0  0  0  0  0  0  0  0  0
   -2.1887   -1.8322   -1.2601 C   0  0  0  0  0  0  0  0  0  0  0  0
    3.0898   -0.9795    0.0444 C   0  0  0  0  0  0  0  0  0  0  0  0
   -2.6673    0.1179    1.1498 C   0  0  0  0  0  0  0  0  0  0  0  0
    2.3320    1.8779   -0.8301 C   0  0  0  0  0  0  0  0  0  0  0  0
    0.8793   -3.6681   -0.8634 C   0  0  0  0  0  0  0  0  0  0  0  0
    2.9555    4.2329   -2.4757 C   0  0  0  0  0  0  0  0  0  0  0  0
   -5.5749   -2.4027    0.9730 C   0  0  0  0  0  0  0  0  0  0  0  0
    1.0200    5.4552   -1.4444 C   0  0  0  0  0  0  0  0  0  0  0  0
   -5.4589   -0.1296    2.0330 C   0  0  0  0  0  0  0  0  0  0  0  0
    3.7107   -3.9045    1.7542 C   0  0  0  0  0  0  0  0  0  0  0  0
    2.6664   -5.6893    0.3303 C   0  0  0  0  0  0  0  0  0  0  0  0
    0.5842    3.8347    1.2225 C   0  0  0  0  0  0  0  0  0  0  0  0
   -2.4593   -3.1342    0.9083 C   0  0  0  0  0  0  0  0  0  0  0  0
    1.2104   -1.6516    1.5822 C   0  0  0  0  0  0  0  0  0  0  0  0
   -3.3528    3.8320   -0.6610 C   0  0  0  0  0  0  0  0  0  0  0  0
   -3.8306    3.8490    1.8038 C   0  0  0  0  0  0  0  0  0  0  0  0
    4.6411    2.2153    1.6428 C   0  0  0  0  0  0  0  0  0  0  0  0
   -0.3067   -1.3952   -3.5618 C   0  0  0  0  0  0  0  0  0  0  0  0
    5.5796   -0.1075    1.4762 C   0  0  0  0  0  0  0  0  0  0  0  0
   -2.2136   -2.9545   -4.0475 C   0  0  0  0  0  0  0  0  0  0  0  0
    0.7849    2.7152   -1.9678 H   0  0  0  0  0  0  0  0  0  0  0  0
   -4.1037   -0.4577   -0.3194 H   0  0  0  0  0  0  0  0  0  0  0  0
    2.9288   -3.2978   -0.8644 H   0  0  0  0  0  0  0  0  0  0  0  0
    2.6627    4.5717   -0.4089 H   0  0  0  0  0  0  0  0  0  0  0  0
   -4.1848   -1.7571    2.4606 H   0  0  0  0  0  0  0  0  0  0  0  0
    1.6409   -4.4046    1.6827 H   0  0  0  0  0  0  0  0  0  0  0  0
   -1.5961    2.2938    1.9032 H   0  0  0  0  0  0  0  0  0  0  0  0
    2.9271    0.1185    1.8850 H   0  0  0  0  0  0  0  0  0  0  0  0
   -1.5958   -3.8843   -1.5198 H   0  0  0  0  0  0  0  0  0  0  0  0
   -2.0610    4.5628    0.8652 H   0  0  0  0  0  0  0  0  0  0  0  0
    4.9608    1.1139   -0.1461 H   0  0  0  0  0  0  0  0  0  0  0  0
   -0.2055   -3.5255   -3.5393 H   0  0  0  0  0  0  0  0  0  0  0  0
    2.4785    3.7363   -3.3273 H   0  0  0  0  0  0  0  0  0  0  0  0
   -5.0816   -3.3302    0.6927 H   0  0  0  0  0  0  0  0  0  0  0  0
    3.2468    5.2360   -2.8090 H   0  0  0  0  0  0  0  0  0  0  0  0
    0.4387    5.6964   -0.5582 H   0  0  0  0  0  0  0  0  0  0  0  0
   -6.0854   -2.0214    0.0808 H   0  0  0  0  0  0  0  0  0  0  0  0
    3.8943    3.7239   -2.2398 H   0  0  0  0  0  0  0  0  0  0  0  0
   -5.9150    0.4008    1.1900 H   0  0  0  0  0  0  0  0  0  0  0  0
   -6.3517   -2.6711    1.6986 H   0  0  0  0  0  0  0  0  0  0  0  0
    1.5396    6.3805   -1.7202 H   0  0  0  0  0  0  0  0  0  0  0  0
   -6.2662   -0.4420    2.7048 H   0  0  0  0  0  0  0  0  0  0  0  0
    0.3163    5.2277   -2.2535 H   0  0  0  0  0  0  0  0  0  0  0  0
   -4.8395    0.5803    2.5903 H   0  0  0  0  0  0  0  0  0  0  0  0
    4.5693   -3.7591    1.0890 H   0  0  0  0  0  0  0  0  0  0  0  0
    3.9836   -4.6839    2.4749 H   0  0  0  0  0  0  0  0  0  0  0  0
    3.5727   -2.9883    2.3322 H   0  0  0  0  0  0  0  0  0  0  0  0
    3.2209   -5.6367   -0.6125 H   0  0  0  0  0  0  0  0  0  0  0  0
    3.2372   -6.3443    0.9998 H   0  0  0  0  0  0  0  0  0  0  0  0
    1.7191   -6.2107    0.1673 H   0  0  0  0  0  0  0  0  0  0  0  0
    1.6600    3.9553    1.3627 H   0  0  0  0  0  0  0  0  0  0  0  0
    0.0875    4.8029    1.1849 H   0  0  0  0  0  0  0  0  0  0  0  0
    0.2146    3.3123    2.1082 H   0  0  0  0  0  0  0  0  0  0  0  0
   -1.4799   -3.5643    0.7009 H   0  0  0  0  0  0  0  0  0  0  0  0
   -2.4489   -2.8336    1.9574 H   0  0  0  0  0  0  0  0  0  0  0  0
   -3.1855   -3.9264    0.7283 H   0  0  0  0  0  0  0  0  0  0  0  0
    0.8113   -0.6379    1.5033 H   0  0  0  0  0  0  0  0  0  0  0  0
    0.3737   -2.3518    1.5708 H   0  0  0  0  0  0  0  0  0  0  0  0
    1.7468   -1.7474    2.5292 H   0  0  0  0  0  0  0  0  0  0  0  0
   -4.0584    3.0228   -0.8764 H   0  0  0  0  0  0  0  0  0  0  0  0
   -3.9051    4.7742   -0.7554 H   0  0  0  0  0  0  0  0  0  0  0  0
   -2.5862    3.8382   -1.4422 H   0  0  0  0  0  0  0  0  0  0  0  0
   -4.6046    3.0824    1.6949 H   0  0  0  0  0  0  0  0  0  0  0  0
   -4.3209    4.8262    1.7360 H   0  0  0  0  0  0  0  0  0  0  0  0
   -3.4023    3.7615    2.8078 H   0  0  0  0  0  0  0  0  0  0  0  0
    4.2673    2.0863    2.6644 H   0  0  0  0  0  0  0  0  0  0  0  0
    0.1960   -1.4610   -4.5354 H   0  0  0  0  0  0  0  0  0  0  0  0
    5.6659    2.5972    1.7089 H   0  0  0  0  0  0  0  0  0  0  0  0
    5.2754   -0.3921    2.4896 H   0  0  0  0  0  0  0  0  0  0  0  0
   -1.0262   -0.5805   -3.6725 H   0  0  0  0  0  0  0  0  0  0  0  0
    4.0418    2.9903    1.1568 H   0  0  0  0  0  0  0  0  0  0  0  0
   -2.9482   -2.1553   -3.9236 H   0  0  0  0  0  0  0  0  0  0  0  0
    0.4607   -1.0911   -2.8436 H   0  0  0  0  0  0  0  0  0  0  0  0
    6.5856    0.3222    1.5416 H   0  0  0  0  0  0  0  0  0  0  0  0
   -1.9781   -3.0025   -5.1169 H   0  0  0  0  0  0  0  0  0  0  0  0
    5.6626   -1.0206    0.8801 H   0  0  0  0  0  0  0  0  0  0  0  0
   -2.6944   -3.9014   -3.7787 H   0  0  0  0  0  0  0  0  0  0  0  0
  1 19  1  0  0  0  0
  1 28  1  0  0  0  0
  2 20  1  0  0  0  0
  2 29  1  0  0  0  0
  3 21  1  0  0  0  0
  3 30  1  0  0  0  0
  4 25  2  0  0  0  0
  5 26  2  0  0  0  0
  6 27  2  0  0  0  0
  7 28  2  0  0  0  0
  8 29  2  0  0  0  0
  9 30  2  0  0  0  0
 10 13  1  0  0  0  0
 10 25  1  0  0  0  0
 10 37  1  0  0  0  0
 11 14  1  0  0  0  0
 11 26  1  0  0  0  0
 11 38  1  0  0  0  0
 12 15  1  0  0  0  0
 12 27  1  0  0  0  0
 12 39  1  0  0  0  0
 13 16  1  0  0  0  0
 13 29  1  0  0  0  0
 13 46  1  6  0  0  0
 14 17  1  0  0  0  0
 14 28  1  0  0  0  0
 14 47  1  6  0  0  0
 15 18  1  0  0  0  0
 15 30  1  0  0  0  0
 15 48  1  6  0  0  0
 16 31  1  0  0  0  0
 16 33  1  0  0  0  0
 16 49  1  0  0  0  0
 17 32  1  0  0  0  0
 17 34  1  0  0  0  0
 17 50  1  0  0  0  0
 18 35  1  0  0  0  0
 18 36  1  0  0  0  0
 18 51  1  0  0  0  0
 19 22  1  0  0  0  0
 19 25  1  0  0  0  0
 19 52  1  1  0  0  0
 20 23  1  0  0  0  0
 20 27  1  0  0  0  0
 20 53  1  1  0  0  0
 21 24  1  0  0  0  0
 21 26  1  0  0  0  0
 21 54  1  1  0  0  0
 22 40  1  0  0  0  0
 22 41  1  0  0  0  0
 22 55  1  0  0  0  0
 23 42  1  0  0  0  0
 23 44  1  0  0  0  0
 23 56  1  0  0  0  0
 24 43  1  0  0  0  0
 24 45  1  0  0  0  0
 24 57  1  0  0  0  0
 31 58  1  0  0  0  0
 31 60  1  0  0  0  0
 31 63  1  0  0  0  0
 32 59  1  0  0  0  0
 32 62  1  0  0  0  0
 32 65  1  0  0  0  0
 33 61  1  0  0  0  0
 33 66  1  0  0  0  0
 33 68  1  0  0  0  0
 34 64  1  0  0  0  0
 34 67  1  0  0  0  0
 34 69  1  0  0  0  0
 35 70  1  0  0  0  0
 35 71  1  0  0  0  0
 35 72  1  0  0  0  0
 36 73  1  0  0  0  0
 36 74  1  0  0  0  0
 36 75  1  0  0  0  0
 37 76  1  0  0  0  0
 37 77  1  0  0  0  0
 37 78  1  0  0  0  0
 38 79  1  0  0  0  0
 38 80  1  0  0  0  0
 38 81  1  0  0  0  0
 39 82  1  0  0  0  0
 39 83  1  0  0  0  0
 39 84  1  0  0  0  0
 40 85  1  0  0  0  0
 40 86  1  0  0  0  0
 40 87  1  0  0  0  0
 41 88  1  0  0  0  0
 41 89  1  0  0  0  0
 41 90  1  0  0  0  0
 42 91  1  0  0  0  0
 42 93  1  0  0  0  0
 42 96  1  0  0  0  0
 43 92  1  0  0  0  0
 43 95  1  0  0  0  0
 43 98  1  0  0  0  0
 44 94  1  0  0  0  0
 44 99  1  0  0  0  0
 44101  1  0  0  0  0
 45 97  1  0  0  0  0
 45100  1  0  0  0  0
 45102  1  0  0  0  0
M  END
