DB08797
 OpenBabel07062211533D

 17 17  0  0  0  0  0  0  0  0999 V2000
    0.4596    2.4189    0.0031 O   0  0  0  0  0  0  0  0  0  0  0  0
   -2.0422    1.9156   -0.0124 O   0  0  0  0  0  0  0  0  0  0  0  0
   -2.8340   -0.2365    0.0020 N   0  0  0  0  0  0  0  0  0  0  0  0
   -0.4358    0.1934    0.0016 C   0  0  0  0  0  0  0  0  0  0  0  0
    0.6497    1.0693    0.0020 C   0  0  0  0  0  0  0  0  0  0  0  0
   -0.2200   -1.1847   -0.0000 C   0  0  0  0  0  0  0  0  0  0  0  0
    1.9511    0.5671    0.0006 C   0  0  0  0  0  0  0  0  0  0  0  0
    1.0813   -1.6869   -0.0014 C   0  0  0  0  0  0  0  0  0  0  0  0
    2.1668   -0.8109   -0.0011 C   0  0  0  0  0  0  0  0  0  0  0  0
   -1.8024    0.6966    0.0026 C   0  0  0  0  0  0  0  0  0  0  0  0
   -1.0084   -1.9271   -0.0010 H   0  0  0  0  0  0  0  0  0  0  0  0
    2.8063    1.2377    0.0006 H   0  0  0  0  0  0  0  0  0  0  0  0
    1.2508   -2.7598   -0.0028 H   0  0  0  0  0  0  0  0  0  0  0  0
    3.1801   -1.2021   -0.0022 H   0  0  0  0  0  0  0  0  0  0  0  0
   -2.7332   -1.2428    0.0099 H   0  0  0  0  0  0  0  0  0  0  0  0
   -3.7953    0.0905   -0.0044 H   0  0  0  0  0  0  0  0  0  0  0  0
    1.3257    2.8618    0.0030 H   0  0  0  0  0  0  0  0  0  0  0  0
  1  5  1  0  0  0  0
  1 17  1  0  0  0  0
  2 10  2  0  0  0  0
  3 10  1  0  0  0  0
  3 15  1  0  0  0  0
  3 16  1  0  0  0  0
  4  5  2  0  0  0  0
  4  6  1  0  0  0  0
  4 10  1  0  0  0  0
  5  7  1  0  0  0  0
  6  8  2  0  0  0  0
  6 11  1  0  0  0  0
  7  9  2  0  0  0  0
  7 12  1  0  0  0  0
  8  9  1  0  0  0  0
  8 13  1  0  0  0  0
  9 14  1  0  0  0  0
M  END
