DB08934
 OpenBabel07062211533D

 65 67  0  0  1  0  0  0  0  0999 V2000
    1.2520   -1.9372    1.8559 P   0  0  1  0  0  0  0  0  0  0  0  0
   -4.9973   -2.0906   -0.2523 F   0  0  0  0  0  0  0  0  0  0  0  0
   -2.5166   -0.8887    0.7816 O   0  0  0  0  0  0  0  0  0  0  0  0
   -3.1386   -3.4331   -1.6726 O   0  0  0  0  0  0  0  0  0  0  0  0
   -0.2666   -2.4224    1.5200 O   0  0  0  0  0  0  0  0  0  0  0  0
   -5.0633    2.1050   -0.3919 O   0  0  0  0  0  0  0  0  0  0  0  0
    1.1199   -0.3352    1.6412 O   0  0  0  0  0  0  0  0  0  0  0  0
    1.6153   -2.2950    3.2751 O   0  0  0  0  0  0  0  0  0  0  0  0
   -1.4661    4.2045   -2.3659 O   0  0  0  0  0  0  0  0  0  0  0  0
    4.0628    0.3000   -0.3939 O   0  0  0  0  0  0  0  0  0  0  0  0
    2.3742   -0.7944   -1.5173 O   0  0  0  0  0  0  0  0  0  0  0  0
   -3.0591    0.9192   -0.5805 N   0  0  0  0  0  0  0  0  0  0  0  0
   -3.2708    3.1488   -1.3746 N   0  0  0  0  0  0  0  0  0  0  0  0
    2.2344   -2.5293    0.6559 N   0  0  0  0  0  0  0  0  0  0  0  0
   -4.1007   -1.3124   -0.9345 C   0  0  2  0  0  0  0  0  0  0  0  0
   -2.8548   -2.1353   -1.1934 C   0  0  1  0  0  0  0  0  0  0  0  0
   -3.5857   -0.2625    0.0449 C   0  0  1  0  0  0  0  0  0  0  0  0
   -2.2389   -2.1730    0.1954 C   0  0  1  0  0  0  0  0  0  0  0  0
   -4.8058   -0.8013   -2.1760 C   0  0  0  0  0  0  0  0  0  0  0  0
   -0.7406   -2.4165    0.1833 C   0  0  0  0  0  0  0  0  0  0  0  0
   -3.8855    2.0540   -0.7524 C   0  0  0  0  0  0  0  0  0  0  0  0
   -1.7393    0.9440   -1.0147 C   0  0  0  0  0  0  0  0  0  0  0  0
   -1.1672    1.9952   -1.6057 C   0  0  0  0  0  0  0  0  0  0  0  0
   -1.9615    3.2209   -1.8246 C   0  0  0  0  0  0  0  0  0  0  0  0
    3.4892   -1.8458    0.3811 C   0  0  1  0  0  0  0  0  0  0  0  0
    4.5079   -2.8389   -0.1617 C   0  0  0  0  0  0  0  0  0  0  0  0
    3.2180   -0.7491   -0.6315 C   0  0  0  0  0  0  0  0  0  0  0  0
    0.3917    0.5149    2.4289 C   0  0  0  0  0  0  0  0  0  0  0  0
   -0.3167    0.0174    3.5227 C   0  0  0  0  0  0  0  0  0  0  0  0
    0.3582    1.8785    2.1382 C   0  0  0  0  0  0  0  0  0  0  0  0
    3.9195    1.4201   -1.2734 C   0  0  0  0  0  0  0  0  0  0  0  0
   -1.0588    0.8836    4.3257 C   0  0  0  0  0  0  0  0  0  0  0  0
   -0.3837    2.7449    2.9409 C   0  0  0  0  0  0  0  0  0  0  0  0
    4.8121    1.2198   -2.4888 C   0  0  0  0  0  0  0  0  0  0  0  0
    4.2656    2.6954   -0.5202 C   0  0  0  0  0  0  0  0  0  0  0  0
   -1.0923    2.2474    4.0347 C   0  0  0  0  0  0  0  0  0  0  0  0
   -2.2032   -1.6418   -1.9222 H   0  0  0  0  0  0  0  0  0  0  0  0
   -4.3656    0.0120    0.7638 H   0  0  0  0  0  0  0  0  0  0  0  0
   -2.7227   -2.9277    0.8287 H   0  0  0  0  0  0  0  0  0  0  0  0
   -4.1482   -0.2060   -2.8164 H   0  0  0  0  0  0  0  0  0  0  0  0
   -5.1813   -1.6421   -2.7694 H   0  0  0  0  0  0  0  0  0  0  0  0
   -5.6774   -0.1974   -1.9041 H   0  0  0  0  0  0  0  0  0  0  0  0
   -0.2024   -1.6583   -0.3871 H   0  0  0  0  0  0  0  0  0  0  0  0
   -0.5162   -3.3925   -0.2590 H   0  0  0  0  0  0  0  0  0  0  0  0
   -2.2958   -3.9116   -1.7470 H   0  0  0  0  0  0  0  0  0  0  0  0
   -1.1310    0.0708   -0.8690 H   0  0  0  0  0  0  0  0  0  0  0  0
   -3.8460    3.9756   -1.5093 H   0  0  0  0  0  0  0  0  0  0  0  0
   -0.1336    1.9794   -1.9293 H   0  0  0  0  0  0  0  0  0  0  0  0
    2.3704   -3.5393    0.6599 H   0  0  0  0  0  0  0  0  0  0  0  0
    3.8749   -1.4073    1.3087 H   0  0  0  0  0  0  0  0  0  0  0  0
    4.1613   -3.3053   -1.0913 H   0  0  0  0  0  0  0  0  0  0  0  0
    5.4535   -2.3335   -0.3878 H   0  0  0  0  0  0  0  0  0  0  0  0
    4.7168   -3.6322    0.5642 H   0  0  0  0  0  0  0  0  0  0  0  0
    2.8775    1.5181   -1.6035 H   0  0  0  0  0  0  0  0  0  0  0  0
   -0.3485   -1.0334    3.7813 H   0  0  0  0  0  0  0  0  0  0  0  0
    0.9078    2.2708    1.2868 H   0  0  0  0  0  0  0  0  0  0  0  0
   -1.6159    0.4961    5.1737 H   0  0  0  0  0  0  0  0  0  0  0  0
   -0.4108    3.8065    2.7135 H   0  0  0  0  0  0  0  0  0  0  0  0
    4.5348    0.3098   -3.0310 H   0  0  0  0  0  0  0  0  0  0  0  0
    4.7411    2.0672   -3.1776 H   0  0  0  0  0  0  0  0  0  0  0  0
    5.8587    1.0994   -2.1881 H   0  0  0  0  0  0  0  0  0  0  0  0
    3.6116    2.8120    0.3509 H   0  0  0  0  0  0  0  0  0  0  0  0
    4.1590    3.5781   -1.1582 H   0  0  0  0  0  0  0  0  0  0  0  0
    5.2922    2.6583   -0.1396 H   0  0  0  0  0  0  0  0  0  0  0  0
   -1.6716    2.9217    4.6586 H   0  0  0  0  0  0  0  0  0  0  0  0
  1  5  1  0  0  0  0
  1  7  1  0  0  0  0
  1  8  2  1  0  0  0
  1 14  1  0  0  0  0
  2 15  1  0  0  0  0
  3 17  1  0  0  0  0
  3 18  1  0  0  0  0
  4 16  1  0  0  0  0
  4 45  1  0  0  0  0
  5 20  1  0  0  0  0
  6 21  2  0  0  0  0
  7 28  1  0  0  0  0
  9 24  2  0  0  0  0
 10 27  1  0  0  0  0
 10 31  1  0  0  0  0
 11 27  2  0  0  0  0
 12 17  1  0  0  0  0
 12 21  1  0  0  0  0
 12 22  1  0  0  0  0
 13 21  1  0  0  0  0
 13 24  1  0  0  0  0
 13 47  1  0  0  0  0
 14 25  1  0  0  0  0
 14 49  1  0  0  0  0
 15 16  1  6  0  0  0
 15 19  1  0  0  0  0
 16 18  1  1  0  0  0
 16 37  1  0  0  0  0
 17 15  1  6  0  0  0
 17 38  1  0  0  0  0
 18 20  1  0  0  0  0
 18 39  1  1  0  0  0
 19 40  1  0  0  0  0
 19 41  1  0  0  0  0
 19 42  1  0  0  0  0
 20 43  1  0  0  0  0
 20 44  1  0  0  0  0
 22 23  2  0  0  0  0
 22 46  1  0  0  0  0
 23 24  1  0  0  0  0
 23 48  1  0  0  0  0
 25 26  1  0  0  0  0
 25 27  1  0  0  0  0
 25 50  1  1  0  0  0
 26 51  1  0  0  0  0
 26 52  1  0  0  0  0
 26 53  1  0  0  0  0
 28 29  2  0  0  0  0
 28 30  1  0  0  0  0
 29 32  1  0  0  0  0
 29 55  1  0  0  0  0
 30 33  2  0  0  0  0
 30 56  1  0  0  0  0
 31 34  1  0  0  0  0
 31 35  1  0  0  0  0
 31 54  1  0  0  0  0
 32 36  2  0  0  0  0
 32 57  1  0  0  0  0
 33 36  1  0  0  0  0
 33 58  1  0  0  0  0
 34 59  1  0  0  0  0
 34 60  1  0  0  0  0
 34 61  1  0  0  0  0
 35 62  1  0  0  0  0
 35 63  1  0  0  0  0
 35 64  1  0  0  0  0
 36 65  1  0  0  0  0
M  END
