DB09144
 OpenBabel07062211533D

 44 45  0  0  1  0  0  0  0  0999 V2000
    0.6021    0.3376   -1.1160 O   0  0  0  0  0  0  0  0  0  0  0  0
   -2.1244    1.4369   -0.5265 O   0  0  0  0  0  0  0  0  0  0  0  0
   -2.2695   -1.0905    0.4882 O   0  0  0  0  0  0  0  0  0  0  0  0
    2.5511    1.9254    0.1282 O   0  0  0  0  0  0  0  0  0  0  0  0
   -1.1120   -3.3598   -1.6415 O   0  0  0  0  0  0  0  0  0  0  0  0
   -1.5430    3.6525   -0.2277 O   0  0  0  0  0  0  0  0  0  0  0  0
   -2.7096   -0.0562    2.5066 O   0  0  0  0  0  0  0  0  0  0  0  0
    2.9018   -5.2656   -0.4156 O   0  0  0  0  0  0  0  0  0  0  0  0
    3.6865    1.9921    2.1391 O   0  0  0  0  0  0  0  0  0  0  0  0
    0.5445   -1.9712   -0.7546 N   0  0  0  0  0  0  0  0  0  0  0  0
    0.8873   -4.3072   -1.0298 N   0  0  0  0  0  0  0  0  0  0  0  0
   -1.0967    1.0368    0.3797 C   0  0  1  0  0  0  0  0  0  0  0  0
   -0.9999   -0.4734    0.4303 C   0  0  2  0  0  0  0  0  0  0  0  0
    0.2437    1.4220   -0.2316 C   0  0  1  0  0  0  0  0  0  0  0  0
   -0.2567   -0.7850   -0.8573 C   0  0  1  0  0  0  0  0  0  0  0  0
    1.3528    1.5791    0.8000 C   0  0  0  0  0  0  0  0  0  0  0  0
    0.0204   -3.2160   -1.1756 C   0  0  0  0  0  0  0  0  0  0  0  0
    1.8342   -1.8951   -0.2418 C   0  0  0  0  0  0  0  0  0  0  0  0
   -2.2343    2.7810   -0.7373 C   0  0  0  0  0  0  0  0  0  0  0  0
   -3.0338   -0.7968    1.5881 C   0  0  0  0  0  0  0  0  0  0  0  0
    2.6487   -2.9441   -0.1088 C   0  0  0  0  0  0  0  0  0  0  0  0
    2.1779   -4.2806   -0.5246 C   0  0  0  0  0  0  0  0  0  0  0  0
    3.6535    2.1045    0.9211 C   0  0  0  0  0  0  0  0  0  0  0  0
   -3.3468    3.0509   -1.7046 C   0  0  0  0  0  0  0  0  0  0  0  0
   -4.3456   -1.5175    1.5141 C   0  0  0  0  0  0  0  0  0  0  0  0
    4.8400    2.4641    0.0791 C   0  0  0  0  0  0  0  0  0  0  0  0
   -1.2761    1.5066    1.3515 H   0  0  0  0  0  0  0  0  0  0  0  0
   -0.4067   -0.7872    1.2999 H   0  0  0  0  0  0  0  0  0  0  0  0
    0.2367    2.3059   -0.8730 H   0  0  0  0  0  0  0  0  0  0  0  0
   -0.9501   -0.8824   -1.7014 H   0  0  0  0  0  0  0  0  0  0  0  0
    1.5077    0.6615    1.3757 H   0  0  0  0  0  0  0  0  0  0  0  0
    1.0882    2.3850    1.4952 H   0  0  0  0  0  0  0  0  0  0  0  0
    2.1998   -0.9269    0.0660 H   0  0  0  0  0  0  0  0  0  0  0  0
    0.5313   -5.2118   -1.3259 H   0  0  0  0  0  0  0  0  0  0  0  0
    3.6490   -2.8465    0.2947 H   0  0  0  0  0  0  0  0  0  0  0  0
   -4.2911    2.6839   -1.2948 H   0  0  0  0  0  0  0  0  0  0  0  0
   -3.1293    2.5705   -2.6619 H   0  0  0  0  0  0  0  0  0  0  0  0
   -3.4328    4.1290   -1.8670 H   0  0  0  0  0  0  0  0  0  0  0  0
   -4.9413   -1.2793    2.4000 H   0  0  0  0  0  0  0  0  0  0  0  0
   -4.8950   -1.1940    0.6265 H   0  0  0  0  0  0  0  0  0  0  0  0
   -4.1739   -2.5964    1.4892 H   0  0  0  0  0  0  0  0  0  0  0  0
    5.7129    2.6045    0.7228 H   0  0  0  0  0  0  0  0  0  0  0  0
    5.0525    1.6556   -0.6248 H   0  0  0  0  0  0  0  0  0  0  0  0
    4.6460    3.3981   -0.4540 H   0  0  0  0  0  0  0  0  0  0  0  0
  1 14  1  0  0  0  0
  1 15  1  0  0  0  0
  2 12  1  0  0  0  0
  2 19  1  0  0  0  0
  3 13  1  0  0  0  0
  3 20  1  0  0  0  0
  4 16  1  0  0  0  0
  4 23  1  0  0  0  0
  5 17  2  0  0  0  0
  6 19  2  0  0  0  0
  7 20  2  0  0  0  0
  8 22  2  0  0  0  0
  9 23  2  0  0  0  0
 10 15  1  0  0  0  0
 10 17  1  0  0  0  0
 10 18  1  0  0  0  0
 11 17  1  0  0  0  0
 11 22  1  0  0  0  0
 11 34  1  0  0  0  0
 12 13  1  1  0  0  0
 12 27  1  0  0  0  0
 13 15  1  6  0  0  0
 13 28  1  0  0  0  0
 14 12  1  1  0  0  0
 14 16  1  0  0  0  0
 14 29  1  0  0  0  0
 15 30  1  6  0  0  0
 16 31  1  0  0  0  0
 16 32  1  0  0  0  0
 18 21  2  0  0  0  0
 18 33  1  0  0  0  0
 19 24  1  0  0  0  0
 20 25  1  0  0  0  0
 21 22  1  0  0  0  0
 21 35  1  0  0  0  0
 23 26  1  0  0  0  0
 24 36  1  0  0  0  0
 24 37  1  0  0  0  0
 24 38  1  0  0  0  0
 25 39  1  0  0  0  0
 25 40  1  0  0  0  0
 25 41  1  0  0  0  0
 26 42  1  0  0  0  0
 26 43  1  0  0  0  0
 26 44  1  0  0  0  0
M  END
