DB09210
 OpenBabel07062211533D

 20 20  0  0  0  0  0  0  0  0999 V2000
   -0.7565    2.3740   -0.5891 O   0  0  0  0  0  0  0  0  0  0  0  0
    1.7340    1.0240    1.4476 O   0  0  0  0  0  0  0  0  0  0  0  0
   -0.1470    0.1103   -0.3756 N   0  0  0  0  0  0  0  0  0  0  0  0
    3.3697   -0.1402    0.3270 N   0  0  0  0  0  0  0  0  0  0  0  0
   -0.7602   -1.1005    0.1169 C   0  0  0  0  0  0  0  0  0  0  0  0
   -2.2418   -0.7897    0.0450 C   0  0  0  0  0  0  0  0  0  0  0  0
   -2.3104    0.7177    0.2589 C   0  0  0  0  0  0  0  0  0  0  0  0
   -0.9984    1.2105   -0.3054 C   0  0  0  0  0  0  0  0  0  0  0  0
    1.2475    0.1522   -0.7585 C   0  0  0  0  0  0  0  0  0  0  0  0
    2.1047    0.3903    0.4632 C   0  0  0  0  0  0  0  0  0  0  0  0
   -0.4272   -1.2657    1.1467 H   0  0  0  0  0  0  0  0  0  0  0  0
   -0.4885   -1.9566   -0.5070 H   0  0  0  0  0  0  0  0  0  0  0  0
   -2.8305   -1.3520    0.7750 H   0  0  0  0  0  0  0  0  0  0  0  0
   -2.6236   -1.0328   -0.9547 H   0  0  0  0  0  0  0  0  0  0  0  0
   -2.3517    0.9694    1.3232 H   0  0  0  0  0  0  0  0  0  0  0  0
   -3.1570    1.1655   -0.2670 H   0  0  0  0  0  0  0  0  0  0  0  0
    1.5092   -0.7815   -1.2654 H   0  0  0  0  0  0  0  0  0  0  0  0
    1.4065    0.9914   -1.4439 H   0  0  0  0  0  0  0  0  0  0  0  0
    4.0573   -0.0429    1.0668 H   0  0  0  0  0  0  0  0  0  0  0  0
    3.6639   -0.6435   -0.5038 H   0  0  0  0  0  0  0  0  0  0  0  0
  1  8  2  0  0  0  0
  2 10  2  0  0  0  0
  3  5  1  0  0  0  0
  3  8  1  0  0  0  0
  3  9  1  0  0  0  0
  4 10  1  0  0  0  0
  4 19  1  0  0  0  0
  4 20  1  0  0  0  0
  5  6  1  0  0  0  0
  5 11  1  0  0  0  0
  5 12  1  0  0  0  0
  6  7  1  0  0  0  0
  6 13  1  0  0  0  0
  6 14  1  0  0  0  0
  7  8  1  0  0  0  0
  7 15  1  0  0  0  0
  7 16  1  0  0  0  0
  9 10  1  0  0  0  0
  9 17  1  0  0  0  0
  9 18  1  0  0  0  0
M  END
