DB09135
 OpenBabel07062211533D

 56 56  0  0  1  0  0  0  0  0999 V2000
    2.1307   -1.4673    1.0883 I   0  0  0  0  0  0  0  0  0  0  0  0
   -3.9496   -1.1198    0.6826 I   0  0  0  0  0  0  0  0  0  0  0  0
   -0.6071    3.9865    0.8772 I   0  0  0  0  0  0  0  0  0  0  0  0
    0.9313   -4.3723    0.0370 O   0  0  0  0  0  0  0  0  0  0  0  0
    1.6358   -4.5371   -2.6493 O   0  0  0  0  0  0  0  0  0  0  0  0
    4.7050    0.7171   -1.3266 O   0  0  0  0  0  0  0  0  0  0  0  0
   -1.2412   -4.3215    2.1120 O   0  0  0  0  0  0  0  0  0  0  0  0
    2.2239    2.0391    2.1453 O   0  0  0  0  0  0  0  0  0  0  0  0
   -3.7830    2.3836    1.7454 O   0  0  0  0  0  0  0  0  0  0  0  0
    7.2071    1.2441   -0.2301 O   0  0  0  0  0  0  0  0  0  0  0  0
   -5.8772    1.4768   -2.0872 O   0  0  0  0  0  0  0  0  0  0  0  0
   -0.9684   -2.3250    0.8853 N   0  0  0  0  0  0  0  0  0  0  0  0
    2.3962    2.0099   -0.1676 N   0  0  0  0  0  0  0  0  0  0  0  0
   -3.6194    2.3900   -0.5676 N   0  0  0  0  0  0  0  0  0  0  0  0
   -1.0212   -3.0301   -0.4288 C   0  0  0  0  0  0  0  0  0  0  0  0
   -0.8882   -0.9247    0.8829 C   0  0  0  0  0  0  0  0  0  0  0  0
    0.3544   -3.4803   -0.9173 C   0  0  2  0  0  0  0  0  0  0  0  0
    0.3551   -0.2973    0.9613 C   0  0  0  0  0  0  0  0  0  0  0  0
    0.4350    1.0953    0.9590 C   0  0  0  0  0  0  0  0  0  0  0  0
   -2.0517   -0.1595    0.8021 C   0  0  0  0  0  0  0  0  0  0  0  0
   -1.9718    1.2330    0.7996 C   0  0  0  0  0  0  0  0  0  0  0  0
   -0.7285    1.8604    0.8782 C   0  0  0  0  0  0  0  0  0  0  0  0
    0.3093   -4.1826   -2.2706 C   0  0  0  0  0  0  0  0  0  0  0  0
   -1.0921   -3.0972    2.0871 C   0  0  0  0  0  0  0  0  0  0  0  0
    3.6930    2.6270   -0.2502 C   0  0  0  0  0  0  0  0  0  0  0  0
    1.7592    1.7633    1.0423 C   0  0  0  0  0  0  0  0  0  0  0  0
    4.8359    1.6139   -0.2231 C   0  0  2  0  0  0  0  0  0  0  0  0
   -3.1930    2.0356    0.7130 C   0  0  0  0  0  0  0  0  0  0  0  0
   -0.9978   -2.3701    3.4089 C   0  0  0  0  0  0  0  0  0  0  0  0
    6.2143    2.2637   -0.2886 C   0  0  0  0  0  0  0  0  0  0  0  0
   -4.7914    3.1983   -0.8162 C   0  0  0  0  0  0  0  0  0  0  0  0
   -6.0359    2.3434   -0.9714 C   0  0  0  0  0  0  0  0  0  0  0  0
   -1.4854   -2.3717   -1.1722 H   0  0  0  0  0  0  0  0  0  0  0  0
   -1.6700   -3.9057   -0.3069 H   0  0  0  0  0  0  0  0  0  0  0  0
    1.0165   -2.6324   -1.0751 H   0  0  0  0  0  0  0  0  0  0  0  0
   -0.1157   -3.5318   -3.0410 H   0  0  0  0  0  0  0  0  0  0  0  0
   -0.2762   -5.1059   -2.2101 H   0  0  0  0  0  0  0  0  0  0  0  0
    3.7054    3.1816   -1.1952 H   0  0  0  0  0  0  0  0  0  0  0  0
    3.8017    3.3450    0.5700 H   0  0  0  0  0  0  0  0  0  0  0  0
    4.7771    0.9989    0.6828 H   0  0  0  0  0  0  0  0  0  0  0  0
    1.9392    1.7358   -1.0329 H   0  0  0  0  0  0  0  0  0  0  0  0
   -1.2362   -3.0628    4.2221 H   0  0  0  0  0  0  0  0  0  0  0  0
    0.0143   -1.9930    3.5659 H   0  0  0  0  0  0  0  0  0  0  0  0
   -1.7127   -1.5457    3.4530 H   0  0  0  0  0  0  0  0  0  0  0  0
    1.1003   -3.8619    0.8467 H   0  0  0  0  0  0  0  0  0  0  0  0
    6.3664    2.9515    0.5488 H   0  0  0  0  0  0  0  0  0  0  0  0
    6.3466    2.8024   -1.2326 H   0  0  0  0  0  0  0  0  0  0  0  0
   -3.0863    2.0671   -1.3702 H   0  0  0  0  0  0  0  0  0  0  0  0
   -4.9204    3.9117    0.0040 H   0  0  0  0  0  0  0  0  0  0  0  0
   -4.5938    3.7541   -1.7387 H   0  0  0  0  0  0  0  0  0  0  0  0
    1.5757   -4.9827   -3.5115 H   0  0  0  0  0  0  0  0  0  0  0  0
    3.8281    0.3018   -1.2612 H   0  0  0  0  0  0  0  0  0  0  0  0
   -6.2125    1.7336   -0.0798 H   0  0  0  0  0  0  0  0  0  0  0  0
   -6.9108    2.9769   -1.1467 H   0  0  0  0  0  0  0  0  0  0  0  0
    8.0718    1.6865   -0.2744 H   0  0  0  0  0  0  0  0  0  0  0  0
   -6.6921    0.9508   -2.1577 H   0  0  0  0  0  0  0  0  0  0  0  0
  1 18  1  0  0  0  0
  2 20  1  0  0  0  0
  3 22  1  0  0  0  0
  4 17  1  0  0  0  0
  4 45  1  0  0  0  0
  5 23  1  0  0  0  0
  5 51  1  0  0  0  0
  6 27  1  0  0  0  0
  6 52  1  0  0  0  0
  7 24  2  0  0  0  0
  8 26  2  0  0  0  0
  9 28  2  0  0  0  0
 10 30  1  0  0  0  0
 10 55  1  0  0  0  0
 11 32  1  0  0  0  0
 11 56  1  0  0  0  0
 12 15  1  0  0  0  0
 12 16  1  0  0  0  0
 12 24  1  0  0  0  0
 13 25  1  0  0  0  0
 13 26  1  0  0  0  0
 13 41  1  0  0  0  0
 14 28  1  0  0  0  0
 14 31  1  0  0  0  0
 14 48  1  0  0  0  0
 15 17  1  0  0  0  0
 15 33  1  0  0  0  0
 15 34  1  0  0  0  0
 16 18  2  0  0  0  0
 16 20  1  0  0  0  0
 17 23  1  0  0  0  0
 17 35  1  6  0  0  0
 18 19  1  0  0  0  0
 19 22  2  0  0  0  0
 19 26  1  0  0  0  0
 20 21  2  0  0  0  0
 21 22  1  0  0  0  0
 21 28  1  0  0  0  0
 23 36  1  0  0  0  0
 23 37  1  0  0  0  0
 24 29  1  0  0  0  0
 25 27  1  0  0  0  0
 25 38  1  0  0  0  0
 25 39  1  0  0  0  0
 27 30  1  0  0  0  0
 27 40  1  1  0  0  0
 29 42  1  0  0  0  0
 29 43  1  0  0  0  0
 29 44  1  0  0  0  0
 30 46  1  0  0  0  0
 30 47  1  0  0  0  0
 31 32  1  0  0  0  0
 31 49  1  0  0  0  0
 31 50  1  0  0  0  0
 32 53  1  0  0  0  0
 32 54  1  0  0  0  0
M  END
