DB09128
 OpenBabel07062211533D

 58 62  0  0  0  0  0  0  0  0999 V2000
    9.5099   -0.8512   -0.4011 S   0  0  0  0  0  0  0  0  0  0  0  0
   -4.0999   -0.8154   -1.0140 O   0  0  0  0  0  0  0  0  0  0  0  0
  -10.9138   -1.3813    0.9517 O   0  0  0  0  0  0  0  0  0  0  0  0
    1.8931   -0.5636    0.4801 N   0  0  0  0  0  0  0  0  0  0  0  0
    4.6104    0.2656    0.1845 N   0  0  0  0  0  0  0  0  0  0  0  0
   -8.7077   -1.2168    0.3133 N   0  0  0  0  0  0  0  0  0  0  0  0
    2.9891   -1.5010    0.7549 C   0  0  0  0  0  0  0  0  0  0  0  0
    2.2776    0.3509   -0.6019 C   0  0  0  0  0  0  0  0  0  0  0  0
    4.2562   -0.7548    1.1791 C   0  0  0  0  0  0  0  0  0  0  0  0
    3.5216    1.1586   -0.2236 C   0  0  0  0  0  0  0  0  0  0  0  0
    0.6733   -1.2898    0.1289 C   0  0  0  0  0  0  0  0  0  0  0  0
   -0.4824   -0.3139   -0.0855 C   0  0  0  0  0  0  0  0  0  0  0  0
    5.9321    0.7241    0.1551 C   0  0  0  0  0  0  0  0  0  0  0  0
   -1.7701   -1.0532   -0.4450 C   0  0  0  0  0  0  0  0  0  0  0  0
    7.0415   -0.1505   -0.0828 C   0  0  0  0  0  0  0  0  0  0  0  0
    6.1970    2.0958    0.3659 C   0  0  0  0  0  0  0  0  0  0  0  0
   -2.9195   -0.0876   -0.7024 C   0  0  0  0  0  0  0  0  0  0  0  0
    8.3369    0.3758   -0.0983 C   0  0  0  0  0  0  0  0  0  0  0  0
    7.0530   -1.5655   -0.3236 C   0  0  0  0  0  0  0  0  0  0  0  0
    7.4917    2.5946    0.3461 C   0  0  0  0  0  0  0  0  0  0  0  0
    8.5770    1.7473    0.1149 C   0  0  0  0  0  0  0  0  0  0  0  0
    8.3194   -2.0662   -0.5111 C   0  0  0  0  0  0  0  0  0  0  0  0
   -5.2933   -0.2295   -0.6811 C   0  0  0  0  0  0  0  0  0  0  0  0
   -6.3838   -1.0281   -0.3568 C   0  0  0  0  0  0  0  0  0  0  0  0
   -7.5950   -0.4223   -0.0179 C   0  0  0  0  0  0  0  0  0  0  0  0
   -5.3982    1.1575   -0.6710 C   0  0  0  0  0  0  0  0  0  0  0  0
   -7.7166    0.9721   -0.0033 C   0  0  0  0  0  0  0  0  0  0  0  0
   -6.6108    1.7616   -0.3318 C   0  0  0  0  0  0  0  0  0  0  0  0
   -9.0019    1.5660    0.3571 C   0  0  0  0  0  0  0  0  0  0  0  0
   -9.9380   -0.6932    0.6596 C   0  0  0  0  0  0  0  0  0  0  0  0
  -10.0470    0.7913    0.6689 C   0  0  0  0  0  0  0  0  0  0  0  0
    3.2051   -2.1177   -0.1279 H   0  0  0  0  0  0  0  0  0  0  0  0
    2.7051   -2.1807    1.5673 H   0  0  0  0  0  0  0  0  0  0  0  0
    2.4638   -0.2011   -1.5329 H   0  0  0  0  0  0  0  0  0  0  0  0
    1.5120    1.1026   -0.8079 H   0  0  0  0  0  0  0  0  0  0  0  0
    5.0496   -1.4844    1.3575 H   0  0  0  0  0  0  0  0  0  0  0  0
    4.0816   -0.2562    2.1423 H   0  0  0  0  0  0  0  0  0  0  0  0
    3.2767    1.8478    0.5949 H   0  0  0  0  0  0  0  0  0  0  0  0
    3.8169    1.7560   -1.0956 H   0  0  0  0  0  0  0  0  0  0  0  0
    0.8205   -1.9014   -0.7710 H   0  0  0  0  0  0  0  0  0  0  0  0
    0.4050   -1.9720    0.9454 H   0  0  0  0  0  0  0  0  0  0  0  0
   -0.2922    0.3731   -0.9145 H   0  0  0  0  0  0  0  0  0  0  0  0
   -0.6400    0.2894    0.8171 H   0  0  0  0  0  0  0  0  0  0  0  0
   -1.6174   -1.6771   -1.3347 H   0  0  0  0  0  0  0  0  0  0  0  0
   -2.0490   -1.7434    0.3611 H   0  0  0  0  0  0  0  0  0  0  0  0
    5.3919    2.7987    0.5661 H   0  0  0  0  0  0  0  0  0  0  0  0
   -2.6731    0.5684   -1.5456 H   0  0  0  0  0  0  0  0  0  0  0  0
   -3.0488    0.5198    0.2031 H   0  0  0  0  0  0  0  0  0  0  0  0
    6.1763   -2.1969   -0.3885 H   0  0  0  0  0  0  0  0  0  0  0  0
    7.6658    3.6538    0.5152 H   0  0  0  0  0  0  0  0  0  0  0  0
    9.5872    2.1466    0.1020 H   0  0  0  0  0  0  0  0  0  0  0  0
    8.5987   -3.0904   -0.7147 H   0  0  0  0  0  0  0  0  0  0  0  0
   -6.2888   -2.1106   -0.3679 H   0  0  0  0  0  0  0  0  0  0  0  0
   -4.5740    1.8080   -0.9474 H   0  0  0  0  0  0  0  0  0  0  0  0
   -6.6817    2.8465   -0.3337 H   0  0  0  0  0  0  0  0  0  0  0  0
   -8.5951   -2.2265    0.2959 H   0  0  0  0  0  0  0  0  0  0  0  0
   -9.0933    2.6467    0.3677 H   0  0  0  0  0  0  0  0  0  0  0  0
  -11.0044    1.2236    0.9377 H   0  0  0  0  0  0  0  0  0  0  0  0
  1 18  1  0  0  0  0
  1 22  1  0  0  0  0
  2 17  1  0  0  0  0
  2 23  1  0  0  0  0
  3 30  2  0  0  0  0
  4  7  1  0  0  0  0
  4  8  1  0  0  0  0
  4 11  1  0  0  0  0
  5  9  1  0  0  0  0
  5 10  1  0  0  0  0
  5 13  1  0  0  0  0
  6 25  1  0  0  0  0
  6 30  1  0  0  0  0
  6 56  1  0  0  0  0
  7  9  1  0  0  0  0
  7 32  1  0  0  0  0
  7 33  1  0  0  0  0
  8 10  1  0  0  0  0
  8 34  1  0  0  0  0
  8 35  1  0  0  0  0
  9 36  1  0  0  0  0
  9 37  1  0  0  0  0
 10 38  1  0  0  0  0
 10 39  1  0  0  0  0
 11 12  1  0  0  0  0
 11 40  1  0  0  0  0
 11 41  1  0  0  0  0
 12 14  1  0  0  0  0
 12 42  1  0  0  0  0
 12 43  1  0  0  0  0
 13 15  2  0  0  0  0
 13 16  1  0  0  0  0
 14 17  1  0  0  0  0
 14 44  1  0  0  0  0
 14 45  1  0  0  0  0
 15 18  1  0  0  0  0
 15 19  1  0  0  0  0
 16 20  2  0  0  0  0
 16 46  1  0  0  0  0
 17 47  1  0  0  0  0
 17 48  1  0  0  0  0
 18 21  2  0  0  0  0
 19 22  2  0  0  0  0
 19 49  1  0  0  0  0
 20 21  1  0  0  0  0
 20 50  1  0  0  0  0
 21 51  1  0  0  0  0
 22 52  1  0  0  0  0
 23 24  2  0  0  0  0
 23 26  1  0  0  0  0
 24 25  1  0  0  0  0
 24 53  1  0  0  0  0
 25 27  2  0  0  0  0
 26 28  2  0  0  0  0
 26 54  1  0  0  0  0
 27 28  1  0  0  0  0
 27 29  1  0  0  0  0
 28 55  1  0  0  0  0
 29 31  2  0  0  0  0
 29 57  1  0  0  0  0
 30 31  1  0  0  0  0
 31 58  1  0  0  0  0
M  END
