DB09213
 OpenBabel07062211533D

 33 33  0  0  1  0  0  0  0  0999 V2000
    5.0241   -1.2301    0.9911 O   0  0  0  0  0  0  0  0  0  0  0  0
    2.9012   -2.0218    0.9450 O   0  0  0  0  0  0  0  0  0  0  0  0
   -3.2299   -0.1130    0.3976 C   0  0  0  0  0  0  0  0  0  0  0  0
   -2.4030    0.8415   -0.4864 C   0  0  0  0  0  0  0  0  0  0  0  0
   -0.9129    0.7001   -0.2828 C   0  0  0  0  0  0  0  0  0  0  0  0
    1.8197    0.4396    0.0912 C   0  0  0  0  0  0  0  0  0  0  0  0
    3.2905    0.2997    0.2925 C   0  0  2  0  0  0  0  0  0  0  0  0
   -2.8906   -1.5828    0.1363 C   0  0  0  0  0  0  0  0  0  0  0  0
   -4.7232    0.1201    0.1544 C   0  0  0  0  0  0  0  0  0  0  0  0
   -0.2833    1.4746    0.6777 C   0  0  0  0  0  0  0  0  0  0  0  0
   -0.2049   -0.2019   -1.0603 C   0  0  0  0  0  0  0  0  0  0  0  0
    1.0927    1.3433    0.8660 C   0  0  0  0  0  0  0  0  0  0  0  0
    1.1708   -0.3331   -0.8718 C   0  0  0  0  0  0  0  0  0  0  0  0
    4.1246    0.6625   -0.9533 C   0  0  0  0  0  0  0  0  0  0  0  0
    3.6893   -1.1017    0.7686 C   0  0  0  0  0  0  0  0  0  0  0  0
   -3.0196    0.1019    1.4533 H   0  0  0  0  0  0  0  0  0  0  0  0
   -2.6954    1.8805   -0.2832 H   0  0  0  0  0  0  0  0  0  0  0  0
   -2.6401    0.6758   -1.5462 H   0  0  0  0  0  0  0  0  0  0  0  0
    3.5990    0.9766    1.1013 H   0  0  0  0  0  0  0  0  0  0  0  0
   -3.5729   -2.2386    0.6889 H   0  0  0  0  0  0  0  0  0  0  0  0
   -2.9790   -1.8315   -0.9267 H   0  0  0  0  0  0  0  0  0  0  0  0
   -1.8791   -1.8306    0.4713 H   0  0  0  0  0  0  0  0  0  0  0  0
   -4.9934    1.1601    0.3661 H   0  0  0  0  0  0  0  0  0  0  0  0
   -4.9962   -0.0973   -0.8839 H   0  0  0  0  0  0  0  0  0  0  0  0
   -5.3285   -0.5198    0.8052 H   0  0  0  0  0  0  0  0  0  0  0  0
   -0.8416    2.1792    1.2872 H   0  0  0  0  0  0  0  0  0  0  0  0
   -0.6982   -0.8046   -1.8173 H   0  0  0  0  0  0  0  0  0  0  0  0
    1.5820    1.9529    1.6210 H   0  0  0  0  0  0  0  0  0  0  0  0
    1.7196   -1.0413   -1.4869 H   0  0  0  0  0  0  0  0  0  0  0  0
    3.9857   -0.0678   -1.7582 H   0  0  0  0  0  0  0  0  0  0  0  0
    3.8405    1.6485   -1.3369 H   0  0  0  0  0  0  0  0  0  0  0  0
    5.1941    0.6910   -0.7187 H   0  0  0  0  0  0  0  0  0  0  0  0
    5.2580   -2.1318    1.2982 H   0  0  0  0  0  0  0  0  0  0  0  0
  1 15  1  0  0  0  0
  1 33  1  0  0  0  0
  2 15  2  0  0  0  0
  3  4  1  0  0  0  0
  3  8  1  0  0  0  0
  3  9  1  0  0  0  0
  3 16  1  0  0  0  0
  4  5  1  0  0  0  0
  4 17  1  0  0  0  0
  4 18  1  0  0  0  0
  5 10  2  0  0  0  0
  5 11  1  0  0  0  0
  6  7  1  0  0  0  0
  6 12  2  0  0  0  0
  6 13  1  0  0  0  0
  7 14  1  0  0  0  0
  7 15  1  0  0  0  0
  7 19  1  1  0  0  0
  8 20  1  0  0  0  0
  8 21  1  0  0  0  0
  8 22  1  0  0  0  0
  9 23  1  0  0  0  0
  9 24  1  0  0  0  0
  9 25  1  0  0  0  0
 10 12  1  0  0  0  0
 10 26  1  0  0  0  0
 11 13  2  0  0  0  0
 11 27  1  0  0  0  0
 12 28  1  0  0  0  0
 13 29  1  0  0  0  0
 14 30  1  0  0  0  0
 14 31  1  0  0  0  0
 14 32  1  0  0  0  0
M  END
