DB09351
 OpenBabel07062211533D

 51 52  0  0  1  0  0  0  0  0999 V2000
    3.7313   -0.2932    0.2055 O   0  0  0  0  0  0  0  0  0  0  0  0
   -2.2143   -2.2255    0.6006 O   0  0  0  0  0  0  0  0  0  0  0  0
   -5.0160   -2.0031    0.5979 O   0  0  0  0  0  0  0  0  0  0  0  0
   -3.1716    0.9257   -0.7161 N   0  0  0  0  0  0  0  0  0  0  0  0
    3.9632    2.0650    0.4022 C   0  0  0  0  0  0  0  0  0  0  0  0
    3.4080    3.2642   -0.3021 C   0  0  0  0  0  0  0  0  0  0  0  0
    2.5213    2.4295    0.5748 C   0  0  0  0  0  0  0  0  0  0  0  0
    4.3127    0.8558   -0.3952 C   0  0  0  0  0  0  0  0  0  0  0  0
    4.0389   -1.4748   -0.5233 C   0  0  0  0  0  0  0  0  0  0  0  0
    3.3919   -2.6825    0.1615 C   0  0  0  0  0  0  0  0  0  0  0  0
    1.9102   -2.5614    0.2774 C   0  0  0  0  0  0  0  0  0  0  0  0
   -4.2128   -1.2927   -0.3489 C   0  0  1  0  0  0  0  0  0  0  0  0
   -3.9356    0.1039    0.2126 C   0  0  0  0  0  0  0  0  0  0  0  0
   -2.9705    2.2659   -0.1819 C   0  0  0  0  0  0  0  0  0  0  0  0
   -2.9436   -2.0988   -0.6161 C   0  0  0  0  0  0  0  0  0  0  0  0
    1.0894   -3.0446   -0.7417 C   0  0  0  0  0  0  0  0  0  0  0  0
    1.3451   -1.9658    1.4049 C   0  0  0  0  0  0  0  0  0  0  0  0
   -0.8538   -2.3373    0.4936 C   0  0  0  0  0  0  0  0  0  0  0  0
   -2.2718    2.1738    1.1709 C   0  0  0  0  0  0  0  0  0  0  0  0
   -2.1596    3.1096   -1.1615 C   0  0  0  0  0  0  0  0  0  0  0  0
   -0.2968   -2.9321   -0.6332 C   0  0  0  0  0  0  0  0  0  0  0  0
   -0.0412   -1.8534    1.5134 C   0  0  0  0  0  0  0  0  0  0  0  0
    4.6191    2.2147    1.2503 H   0  0  0  0  0  0  0  0  0  0  0  0
    3.7001    4.2418    0.0619 H   0  0  0  0  0  0  0  0  0  0  0  0
    3.2426    3.2194   -1.3714 H   0  0  0  0  0  0  0  0  0  0  0  0
    1.7654    1.8226    0.0911 H   0  0  0  0  0  0  0  0  0  0  0  0
    2.2161    2.8473    1.5264 H   0  0  0  0  0  0  0  0  0  0  0  0
    5.4030    0.7459   -0.4251 H   0  0  0  0  0  0  0  0  0  0  0  0
    3.9499    0.9449   -1.4265 H   0  0  0  0  0  0  0  0  0  0  0  0
    3.6646   -1.3799   -1.5498 H   0  0  0  0  0  0  0  0  0  0  0  0
    5.1254   -1.6159   -0.5565 H   0  0  0  0  0  0  0  0  0  0  0  0
    3.6546   -3.5972   -0.3843 H   0  0  0  0  0  0  0  0  0  0  0  0
    3.8188   -2.7978    1.1665 H   0  0  0  0  0  0  0  0  0  0  0  0
   -4.7979   -1.2172   -1.2726 H   0  0  0  0  0  0  0  0  0  0  0  0
   -3.4239   -0.0306    1.1713 H   0  0  0  0  0  0  0  0  0  0  0  0
   -4.8978    0.5803    0.4429 H   0  0  0  0  0  0  0  0  0  0  0  0
   -3.9403    2.7616   -0.0460 H   0  0  0  0  0  0  0  0  0  0  0  0
   -3.6567    0.9790   -1.6112 H   0  0  0  0  0  0  0  0  0  0  0  0
   -3.2163   -3.1053   -0.9551 H   0  0  0  0  0  0  0  0  0  0  0  0
   -2.3662   -1.5933   -1.3999 H   0  0  0  0  0  0  0  0  0  0  0  0
    1.5181   -3.5147   -1.6229 H   0  0  0  0  0  0  0  0  0  0  0  0
    1.9722   -1.5846    2.2065 H   0  0  0  0  0  0  0  0  0  0  0  0
   -1.3991    1.5108    1.1387 H   0  0  0  0  0  0  0  0  0  0  0  0
   -1.9106    3.1628    1.4776 H   0  0  0  0  0  0  0  0  0  0  0  0
   -2.9421    1.8404    1.9696 H   0  0  0  0  0  0  0  0  0  0  0  0
   -2.6670    3.1839   -2.1297 H   0  0  0  0  0  0  0  0  0  0  0  0
   -1.1657    2.6805   -1.3318 H   0  0  0  0  0  0  0  0  0  0  0  0
   -2.0255    4.1274   -0.7790 H   0  0  0  0  0  0  0  0  0  0  0  0
   -0.9001   -3.3472   -1.4347 H   0  0  0  0  0  0  0  0  0  0  0  0
   -0.4776   -1.3873    2.3923 H   0  0  0  0  0  0  0  0  0  0  0  0
   -4.4877   -2.1203    1.4061 H   0  0  0  0  0  0  0  0  0  0  0  0
  1  8  1  0  0  0  0
  1  9  1  0  0  0  0
  2 15  1  0  0  0  0
  2 18  1  0  0  0  0
  3 12  1  0  0  0  0
  3 51  1  0  0  0  0
  4 13  1  0  0  0  0
  4 14  1  0  0  0  0
  4 38  1  0  0  0  0
  5  6  1  0  0  0  0
  5  7  1  0  0  0  0
  5  8  1  0  0  0  0
  5 23  1  0  0  0  0
  6  7  1  0  0  0  0
  6 24  1  0  0  0  0
  6 25  1  0  0  0  0
  7 26  1  0  0  0  0
  7 27  1  0  0  0  0
  8 28  1  0  0  0  0
  8 29  1  0  0  0  0
  9 10  1  0  0  0  0
  9 30  1  0  0  0  0
  9 31  1  0  0  0  0
 10 11  1  0  0  0  0
 10 32  1  0  0  0  0
 10 33  1  0  0  0  0
 11 16  2  0  0  0  0
 11 17  1  0  0  0  0
 12 13  1  0  0  0  0
 12 15  1  0  0  0  0
 12 34  1  6  0  0  0
 13 35  1  0  0  0  0
 13 36  1  0  0  0  0
 14 19  1  0  0  0  0
 14 20  1  0  0  0  0
 14 37  1  0  0  0  0
 15 39  1  0  0  0  0
 15 40  1  0  0  0  0
 16 21  1  0  0  0  0
 16 41  1  0  0  0  0
 17 22  2  0  0  0  0
 17 42  1  0  0  0  0
 18 21  2  0  0  0  0
 18 22  1  0  0  0  0
 19 43  1  0  0  0  0
 19 44  1  0  0  0  0
 19 45  1  0  0  0  0
 20 46  1  0  0  0  0
 20 47  1  0  0  0  0
 20 48  1  0  0  0  0
 21 49  1  0  0  0  0
 22 50  1  0  0  0  0
M  END
