DB09326
 OpenBabel07062211533D

  4  3  0  0  0  0  0  0  0  0999 V2000
    0.0000   -0.0000    0.2956 N   0  0  0  0  0  0  0  0  0  0  0  0
    0.9237    0.1726   -0.0985 H   0  0  0  0  0  0  0  0  0  0  0  0
   -0.6114    0.7136   -0.0985 H   0  0  0  0  0  0  0  0  0  0  0  0
   -0.3124   -0.8862   -0.0985 H   0  0  0  0  0  0  0  0  0  0  0  0
  1  2  1  0  0  0  0
  1  3  1  0  0  0  0
  1  4  1  0  0  0  0
M  END
