DB09357
 OpenBabel07062211533D

 33 32  0  0  1  0  0  0  0  0999 V2000
   -1.2253   -2.3201   -0.1803 O   0  0  0  0  0  0  0  0  0  0  0  0
   -3.0495    2.1535    0.5736 O   0  0  0  0  0  0  0  0  0  0  0  0
    0.3039   -0.8470   -1.8535 O   0  0  0  0  0  0  0  0  0  0  0  0
    5.0983   -1.0023    0.8449 O   0  0  0  0  0  0  0  0  0  0  0  0
    1.1107    0.3287   -0.0232 N   0  0  0  0  0  0  0  0  0  0  0  0
   -2.1868   -0.1075    0.1822 C   0  0  0  0  0  0  0  0  0  0  0  0
   -0.9075   -0.9943    0.2351 C   0  0  2  0  0  0  0  0  0  0  0  0
   -1.8790    1.3447    0.6225 C   0  0  0  0  0  0  0  0  0  0  0  0
   -3.2414   -0.7068    1.1432 C   0  0  0  0  0  0  0  0  0  0  0  0
   -2.7993   -0.1041   -1.2327 C   0  0  0  0  0  0  0  0  0  0  0  0
    0.2251   -0.5172   -0.6716 C   0  0  0  0  0  0  0  0  0  0  0  0
    2.2489    0.9295   -0.6796 C   0  0  0  0  0  0  0  0  0  0  0  0
    3.5002    0.0664   -0.5836 C   0  0  0  0  0  0  0  0  0  0  0  0
    3.9189   -0.2088    0.8556 C   0  0  0  0  0  0  0  0  0  0  0  0
   -0.5397   -1.0634    1.2657 H   0  0  0  0  0  0  0  0  0  0  0  0
   -1.1309    1.8183   -0.0206 H   0  0  0  0  0  0  0  0  0  0  0  0
   -1.5007    1.3655    1.6501 H   0  0  0  0  0  0  0  0  0  0  0  0
   -3.5109   -1.7302    0.8596 H   0  0  0  0  0  0  0  0  0  0  0  0
   -4.1664   -0.1193    1.1449 H   0  0  0  0  0  0  0  0  0  0  0  0
   -2.8632   -0.7336    2.1714 H   0  0  0  0  0  0  0  0  0  0  0  0
   -3.7429    0.4525   -1.2612 H   0  0  0  0  0  0  0  0  0  0  0  0
   -3.0347   -1.1133   -1.5853 H   0  0  0  0  0  0  0  0  0  0  0  0
   -2.1265    0.3618   -1.9601 H   0  0  0  0  0  0  0  0  0  0  0  0
    0.9641    0.5463    0.9580 H   0  0  0  0  0  0  0  0  0  0  0  0
    2.4190    1.9020   -0.2058 H   0  0  0  0  0  0  0  0  0  0  0  0
    2.0020    1.1067   -1.7321 H   0  0  0  0  0  0  0  0  0  0  0  0
   -1.4001   -2.3156   -1.1358 H   0  0  0  0  0  0  0  0  0  0  0  0
    3.3397   -0.8898   -1.0975 H   0  0  0  0  0  0  0  0  0  0  0  0
    4.3230    0.5578   -1.1172 H   0  0  0  0  0  0  0  0  0  0  0  0
   -3.2167    2.3769   -0.3574 H   0  0  0  0  0  0  0  0  0  0  0  0
    4.1261    0.7191    1.3981 H   0  0  0  0  0  0  0  0  0  0  0  0
    3.1497   -0.7647    1.3992 H   0  0  0  0  0  0  0  0  0  0  0  0
    5.7920   -0.4917    0.3934 H   0  0  0  0  0  0  0  0  0  0  0  0
  1  7  1  0  0  0  0
  1 27  1  0  0  0  0
  2  8  1  0  0  0  0
  2 30  1  0  0  0  0
  3 11  2  0  0  0  0
  4 14  1  0  0  0  0
  4 33  1  0  0  0  0
  5 11  1  0  0  0  0
  5 12  1  0  0  0  0
  5 24  1  0  0  0  0
  6  7  1  0  0  0  0
  6  8  1  0  0  0  0
  6  9  1  0  0  0  0
  6 10  1  0  0  0  0
  7 11  1  0  0  0  0
  7 15  1  1  0  0  0
  8 16  1  0  0  0  0
  8 17  1  0  0  0  0
  9 18  1  0  0  0  0
  9 19  1  0  0  0  0
  9 20  1  0  0  0  0
 10 21  1  0  0  0  0
 10 22  1  0  0  0  0
 10 23  1  0  0  0  0
 12 13  1  0  0  0  0
 12 25  1  0  0  0  0
 12 26  1  0  0  0  0
 13 14  1  0  0  0  0
 13 28  1  0  0  0  0
 13 29  1  0  0  0  0
 14 31  1  0  0  0  0
 14 32  1  0  0  0  0
M  END
