DB09216
 OpenBabel07062211533D

 30 31  0  0  0  0  0  0  0  0999 V2000
   -5.1186    0.9405    0.6553 Cl  0  0  0  0  0  0  0  0  0  0  0  0
    3.5244    2.4568   -0.6384 O   0  0  0  0  0  0  0  0  0  0  0  0
    1.4558    2.2057   -1.5465 O   0  0  0  0  0  0  0  0  0  0  0  0
   -0.0143    0.4371    0.0136 N   0  0  0  0  0  0  0  0  0  0  0  0
   -1.3141   -0.0657   -0.1784 C   0  0  0  0  0  0  0  0  0  0  0  0
   -2.4335    0.6276    0.2905 C   0  0  0  0  0  0  0  0  0  0  0  0
    1.2408   -0.1929    0.1683 C   0  0  0  0  0  0  0  0  0  0  0  0
    2.4129    0.4315   -0.2581 C   0  0  0  0  0  0  0  0  0  0  0  0
   -1.4855   -1.2795   -0.8500 C   0  0  0  0  0  0  0  0  0  0  0  0
   -3.7136    0.1116    0.0897 C   0  0  0  0  0  0  0  0  0  0  0  0
    1.2978   -1.4559    0.7574 C   0  0  0  0  0  0  0  0  0  0  0  0
   -2.2418    1.9276    1.0098 C   0  0  0  0  0  0  0  0  0  0  0  0
   -2.7655   -1.7958   -1.0508 C   0  0  0  0  0  0  0  0  0  0  0  0
   -3.8797   -1.1001   -0.5810 C   0  0  0  0  0  0  0  0  0  0  0  0
    3.6423   -0.2073   -0.0954 C   0  0  0  0  0  0  0  0  0  0  0  0
    2.5272   -2.0947    0.9204 C   0  0  0  0  0  0  0  0  0  0  0  0
    3.6993   -1.4704    0.4940 C   0  0  0  0  0  0  0  0  0  0  0  0
    2.3868    1.7507   -0.8774 C   0  0  0  0  0  0  0  0  0  0  0  0
    0.0406    1.4503   -0.0177 H   0  0  0  0  0  0  0  0  0  0  0  0
   -0.6405   -1.8329   -1.2508 H   0  0  0  0  0  0  0  0  0  0  0  0
    0.4060   -1.9572    1.1232 H   0  0  0  0  0  0  0  0  0  0  0  0
   -3.0158    2.1147    1.7598 H   0  0  0  0  0  0  0  0  0  0  0  0
   -1.3058    1.9510    1.5780 H   0  0  0  0  0  0  0  0  0  0  0  0
   -2.2394    2.7553    0.2934 H   0  0  0  0  0  0  0  0  0  0  0  0
   -2.8954   -2.7364   -1.5782 H   0  0  0  0  0  0  0  0  0  0  0  0
   -4.8704   -1.5156   -0.7471 H   0  0  0  0  0  0  0  0  0  0  0  0
    4.5723    0.2458   -0.4287 H   0  0  0  0  0  0  0  0  0  0  0  0
    2.5725   -3.0758    1.3838 H   0  0  0  0  0  0  0  0  0  0  0  0
    4.6561   -1.9690    0.6193 H   0  0  0  0  0  0  0  0  0  0  0  0
    3.4991    3.3431   -1.0580 H   0  0  0  0  0  0  0  0  0  0  0  0
  1 10  1  0  0  0  0
  2 18  1  0  0  0  0
  2 30  1  0  0  0  0
  3 18  2  0  0  0  0
  4  5  1  0  0  0  0
  4  7  1  0  0  0  0
  4 19  1  0  0  0  0
  5  6  2  0  0  0  0
  5  9  1  0  0  0  0
  6 10  1  0  0  0  0
  6 12  1  0  0  0  0
  7  8  2  0  0  0  0
  7 11  1  0  0  0  0
  8 15  1  0  0  0  0
  8 18  1  0  0  0  0
  9 13  2  0  0  0  0
  9 20  1  0  0  0  0
 10 14  2  0  0  0  0
 11 16  2  0  0  0  0
 11 21  1  0  0  0  0
 12 22  1  0  0  0  0
 12 23  1  0  0  0  0
 12 24  1  0  0  0  0
 13 14  1  0  0  0  0
 13 25  1  0  0  0  0
 14 26  1  0  0  0  0
 15 17  2  0  0  0  0
 15 27  1  0  0  0  0
 16 17  1  0  0  0  0
 16 28  1  0  0  0  0
 17 29  1  0  0  0  0
M  END
