DB09272
 OpenBabel07062211533D

 77 80  0  0  1  0  0  0  0  0999 V2000
   -0.8213   -1.8975   -1.1789 O   0  0  0  0  0  0  0  0  0  0  0  0
    2.6732    5.1941    0.6723 O   0  0  0  0  0  0  0  0  0  0  0  0
    6.3704   -0.7014   -2.4666 O   0  0  0  0  0  0  0  0  0  0  0  0
    4.3185    1.4483    0.6287 O   0  0  0  0  0  0  0  0  0  0  0  0
    4.7344    3.5317    1.4369 O   0  0  0  0  0  0  0  0  0  0  0  0
   -0.9073   -0.0051    0.1535 N   0  0  0  0  0  0  0  0  0  0  0  0
   -0.8151   -2.7206    1.8163 N   0  0  0  0  0  0  0  0  0  0  0  0
   -4.0229    0.4787   -0.3083 N   0  0  0  0  0  0  0  0  0  0  0  0
   -3.2356   -0.5940   -2.0866 N   0  0  0  0  0  0  0  0  0  0  0  0
    7.2382   -1.1222   -0.3861 N   0  0  0  0  0  0  0  0  0  0  0  0
   -1.6201    0.8187   -0.8144 C   0  0  2  0  0  0  0  0  0  0  0  0
    0.2071   -2.0876    0.9815 C   0  0  1  0  0  0  0  0  0  0  0  0
    1.1175   -3.1821    0.3948 C   0  0  0  0  0  0  0  0  0  0  0  0
   -0.5553   -1.3323   -0.1127 C   0  0  0  0  0  0  0  0  0  0  0  0
   -0.5847    0.6465    1.4189 C   0  0  0  0  0  0  0  0  0  0  0  0
    2.4558   -2.6419   -0.0551 C   0  0  0  0  0  0  0  0  0  0  0  0
   -2.9725    0.2044   -1.1060 C   0  0  2  0  0  0  0  0  0  0  0  0
   -0.7823    1.0257   -2.0716 C   0  0  0  0  0  0  0  0  0  0  0  0
    0.2895    1.8560    1.2202 C   0  0  0  0  0  0  0  0  0  0  0  0
    2.6047   -2.1871   -1.3568 C   0  0  0  0  0  0  0  0  0  0  0  0
    3.5142   -2.6119    0.8408 C   0  0  0  0  0  0  0  0  0  0  0  0
   -5.0806   -0.2148   -0.8256 C   0  0  0  0  0  0  0  0  0  0  0  0
    3.8405   -1.6912   -1.7724 C   0  0  0  0  0  0  0  0  0  0  0  0
    4.7500   -2.1159    0.4251 C   0  0  0  0  0  0  0  0  0  0  0  0
    4.9130   -1.6554   -0.8814 C   0  0  0  0  0  0  0  0  0  0  0  0
    1.6696    1.7125    1.2359 C   0  0  0  0  0  0  0  0  0  0  0  0
   -0.2984    3.0977    1.0238 C   0  0  0  0  0  0  0  0  0  0  0  0
    1.4718   -2.2140   -2.3302 C   0  0  0  0  0  0  0  0  0  0  0  0
    3.3655   -3.1000    2.2447 C   0  0  0  0  0  0  0  0  0  0  0  0
   -4.5703   -0.8686   -1.9226 C   0  0  0  0  0  0  0  0  0  0  0  0
    2.4787    2.8336    1.0514 C   0  0  0  0  0  0  0  0  0  0  0  0
   -6.4017   -0.1869   -0.2557 C   0  0  0  0  0  0  0  0  0  0  0  0
    0.5107    4.2188    0.8391 C   0  0  0  0  0  0  0  0  0  0  0  0
    1.8992    4.0869    0.8528 C   0  0  0  0  0  0  0  0  0  0  0  0
    6.2007   -1.1359   -1.3138 C   0  0  0  0  0  0  0  0  0  0  0  0
   -6.5690    0.0009    1.1180 C   0  0  0  0  0  0  0  0  0  0  0  0
   -7.5218   -0.3480   -1.0743 C   0  0  0  0  0  0  0  0  0  0  0  0
    3.9260    2.6745    1.0693 C   0  0  0  0  0  0  0  0  0  0  0  0
   -7.8495    0.0274    1.6704 C   0  0  0  0  0  0  0  0  0  0  0  0
   -8.8025   -0.3215   -0.5220 C   0  0  0  0  0  0  0  0  0  0  0  0
   -8.9663   -0.1339    0.8505 C   0  0  0  0  0  0  0  0  0  0  0  0
    3.0358    5.5191   -0.6679 C   0  0  0  0  0  0  0  0  0  0  0  0
   -1.8403    1.8038   -0.4056 H   0  0  0  0  0  0  0  0  0  0  0  0
    0.8385   -1.4391    1.5849 H   0  0  0  0  0  0  0  0  0  0  0  0
    1.2895   -3.9541    1.1567 H   0  0  0  0  0  0  0  0  0  0  0  0
    0.6203   -3.7601   -0.3903 H   0  0  0  0  0  0  0  0  0  0  0  0
   -1.5442    0.9637    1.8521 H   0  0  0  0  0  0  0  0  0  0  0  0
   -0.1636    0.0084    2.1933 H   0  0  0  0  0  0  0  0  0  0  0  0
    0.2317    1.3603   -1.8296 H   0  0  0  0  0  0  0  0  0  0  0  0
   -1.2429    1.7915   -2.7069 H   0  0  0  0  0  0  0  0  0  0  0  0
   -0.7065    0.1255   -2.6872 H   0  0  0  0  0  0  0  0  0  0  0  0
   -1.4525   -2.0169    2.1858 H   0  0  0  0  0  0  0  0  0  0  0  0
   -1.3777   -3.3617    1.2583 H   0  0  0  0  0  0  0  0  0  0  0  0
   -4.0292    1.0829    0.5037 H   0  0  0  0  0  0  0  0  0  0  0  0
    3.9571   -1.3307   -2.7918 H   0  0  0  0  0  0  0  0  0  0  0  0
    5.5494   -2.1105    1.1561 H   0  0  0  0  0  0  0  0  0  0  0  0
    2.1016    0.7292    1.4025 H   0  0  0  0  0  0  0  0  0  0  0  0
   -1.3751    3.2350    1.0546 H   0  0  0  0  0  0  0  0  0  0  0  0
    0.8103   -3.0749   -2.2471 H   0  0  0  0  0  0  0  0  0  0  0  0
    0.9721   -1.2486   -2.3484 H   0  0  0  0  0  0  0  0  0  0  0  0
    1.8885   -2.3306   -3.3413 H   0  0  0  0  0  0  0  0  0  0  0  0
    4.2542   -2.8734    2.8451 H   0  0  0  0  0  0  0  0  0  0  0  0
    2.5242   -2.6179    2.7513 H   0  0  0  0  0  0  0  0  0  0  0  0
    3.2368   -4.1869    2.2637 H   0  0  0  0  0  0  0  0  0  0  0  0
   -5.0871   -1.5274   -2.6062 H   0  0  0  0  0  0  0  0  0  0  0  0
    0.0524    5.1938    0.6959 H   0  0  0  0  0  0  0  0  0  0  0  0
   -5.7189    0.1187    1.7856 H   0  0  0  0  0  0  0  0  0  0  0  0
   -7.4225   -0.4902   -2.1478 H   0  0  0  0  0  0  0  0  0  0  0  0
   -7.9775    0.1709    2.7394 H   0  0  0  0  0  0  0  0  0  0  0  0
   -9.6723   -0.4458   -1.1604 H   0  0  0  0  0  0  0  0  0  0  0  0
    8.1446   -0.7574   -0.6624 H   0  0  0  0  0  0  0  0  0  0  0  0
    7.1891   -1.4495    0.5698 H   0  0  0  0  0  0  0  0  0  0  0  0
   -9.9633   -0.1137    1.2805 H   0  0  0  0  0  0  0  0  0  0  0  0
    2.1449    5.7669   -1.2537 H   0  0  0  0  0  0  0  0  0  0  0  0
    3.6917    6.3934   -0.6427 H   0  0  0  0  0  0  0  0  0  0  0  0
    3.5750    4.6912   -1.1390 H   0  0  0  0  0  0  0  0  0  0  0  0
    5.2942    1.3485    0.6450 H   0  0  0  0  0  0  0  0  0  0  0  0
  1 14  2  0  0  0  0
  2 34  1  0  0  0  0
  2 42  1  0  0  0  0
  3 35  2  0  0  0  0
  4 38  1  0  0  0  0
  4 77  1  0  0  0  0
  5 38  2  0  0  0  0
  6 11  1  0  0  0  0
  6 14  1  0  0  0  0
  6 15  1  0  0  0  0
  7 12  1  0  0  0  0
  7 52  1  0  0  0  0
  7 53  1  0  0  0  0
  8 17  1  0  0  0  0
  8 22  2  0  0  0  0
  8 54  1  0  0  0  0
  9 17  1  0  0  0  0
  9 30  2  0  0  0  0
 10 35  1  0  0  0  0
 10 71  1  0  0  0  0
 10 72  1  0  0  0  0
 11 18  1  0  0  0  0
 11 43  1  1  0  0  0
 12 13  1  0  0  0  0
 12 14  1  0  0  0  0
 12 44  1  1  0  0  0
 13 16  1  0  0  0  0
 13 45  1  0  0  0  0
 13 46  1  0  0  0  0
 15 19  1  0  0  0  0
 15 47  1  0  0  0  0
 15 48  1  0  0  0  0
 16 20  2  0  0  0  0
 16 21  1  0  0  0  0
 17 11  1  1  0  0  0
 18 49  1  0  0  0  0
 18 50  1  0  0  0  0
 18 51  1  0  0  0  0
 19 26  2  0  0  0  0
 19 27  1  0  0  0  0
 20 23  1  0  0  0  0
 20 28  1  0  0  0  0
 21 24  2  0  0  0  0
 21 29  1  0  0  0  0
 22 30  1  0  0  0  0
 22 32  1  0  0  0  0
 23 25  2  0  0  0  0
 23 55  1  0  0  0  0
 24 25  1  0  0  0  0
 24 56  1  0  0  0  0
 25 35  1  0  0  0  0
 26 31  1  0  0  0  0
 26 57  1  0  0  0  0
 27 33  2  0  0  0  0
 27 58  1  0  0  0  0
 28 59  1  0  0  0  0
 28 60  1  0  0  0  0
 28 61  1  0  0  0  0
 29 62  1  0  0  0  0
 29 63  1  0  0  0  0
 29 64  1  0  0  0  0
 30 65  1  0  0  0  0
 31 34  2  0  0  0  0
 31 38  1  0  0  0  0
 32 36  2  0  0  0  0
 32 37  1  0  0  0  0
 33 34  1  0  0  0  0
 33 66  1  0  0  0  0
 36 39  1  0  0  0  0
 36 67  1  0  0  0  0
 37 40  2  0  0  0  0
 37 68  1  0  0  0  0
 39 41  2  0  0  0  0
 39 69  1  0  0  0  0
 40 41  1  0  0  0  0
 40 70  1  0  0  0  0
 41 73  1  0  0  0  0
 42 74  1  0  0  0  0
 42 75  1  0  0  0  0
 42 76  1  0  0  0  0
M  END
