DB09383
 OpenBabel07062211533D

 55 58  0  0  1  0  0  0  0  0999 V2000
   -2.6495    0.7137    1.9970 O   0  0  0  0  0  0  0  0  0  0  0  0
    1.3031    2.7915   -0.7186 O   0  0  0  0  0  0  0  0  0  0  0  0
   -3.6908    2.0327   -0.7885 O   0  0  0  0  0  0  0  0  0  0  0  0
   -6.2487    1.3150   -0.0514 O   0  0  0  0  0  0  0  0  0  0  0  0
    6.6644    0.0376    1.9027 O   0  0  0  0  0  0  0  0  0  0  0  0
   -1.3464    0.6416   -0.0668 C   0  0  1  0  0  0  0  0  0  0  0  0
   -0.5658   -0.6243    0.3662 C   0  0  2  0  0  0  0  0  0  0  0  0
    0.8411   -0.7071   -0.2487 C   0  0  1  0  0  0  0  0  0  0  0  0
   -2.7222    0.3620    0.6086 C   0  0  1  0  0  0  0  0  0  0  0  0
    1.6701    0.5418    0.1963 C   0  0  1  0  0  0  0  0  0  0  0  0
   -1.5461   -1.7546    0.0703 C   0  0  0  0  0  0  0  0  0  0  0  0
   -2.9178   -1.1844    0.5093 C   0  0  2  0  0  0  0  0  0  0  0  0
   -0.5643    1.8606    0.4411 C   0  0  0  0  0  0  0  0  0  0  0  0
    3.1475    0.5125   -0.3333 C   0  0  1  0  0  0  0  0  0  0  0  0
    1.5490   -2.0089    0.1570 C   0  0  0  0  0  0  0  0  0  0  0  0
    0.8552    1.8206   -0.1122 C   0  0  0  0  0  0  0  0  0  0  0  0
   -1.5107    0.7639   -1.6084 C   0  0  0  0  0  0  0  0  0  0  0  0
    2.9737   -2.0676   -0.3822 C   0  0  0  0  0  0  0  0  0  0  0  0
    3.7487   -0.8476    0.0488 C   0  0  0  0  0  0  0  0  0  0  0  0
   -3.8496    1.2268    0.1273 C   0  0  0  0  0  0  0  0  0  0  0  0
   -4.0229   -1.6696   -0.4245 C   0  0  0  0  0  0  0  0  0  0  0  0
    3.2359    0.6733   -1.8679 C   0  0  0  0  0  0  0  0  0  0  0  0
    3.9506    1.6532    0.2794 C   0  0  0  0  0  0  0  0  0  0  0  0
    4.8722   -0.9920    0.7692 C   0  0  0  0  0  0  0  0  0  0  0  0
   -5.1784    1.0487    0.8302 C   0  0  0  0  0  0  0  0  0  0  0  0
    5.0684    1.5140    0.9995 C   0  0  0  0  0  0  0  0  0  0  0  0
    5.6225    0.1762    1.2712 C   0  0  0  0  0  0  0  0  0  0  0  0
   -0.4250   -0.6055    1.4583 H   0  0  0  0  0  0  0  0  0  0  0  0
    0.7599   -0.7237   -1.3397 H   0  0  0  0  0  0  0  0  0  0  0  0
    1.7296    0.5225    1.2973 H   0  0  0  0  0  0  0  0  0  0  0  0
   -1.5358   -2.0117   -0.9953 H   0  0  0  0  0  0  0  0  0  0  0  0
   -1.3042   -2.6632    0.6318 H   0  0  0  0  0  0  0  0  0  0  0  0
   -3.1390   -1.5936    1.5045 H   0  0  0  0  0  0  0  0  0  0  0  0
   -0.4832    1.8814    1.5336 H   0  0  0  0  0  0  0  0  0  0  0  0
   -1.0457    2.7951    0.1328 H   0  0  0  0  0  0  0  0  0  0  0  0
    0.9950   -2.8748   -0.2234 H   0  0  0  0  0  0  0  0  0  0  0  0
    1.5665   -2.0992    1.2511 H   0  0  0  0  0  0  0  0  0  0  0  0
   -1.7867    1.7764   -1.9194 H   0  0  0  0  0  0  0  0  0  0  0  0
   -0.5764    0.5740   -2.1432 H   0  0  0  0  0  0  0  0  0  0  0  0
   -2.2445    0.0660   -2.0182 H   0  0  0  0  0  0  0  0  0  0  0  0
    2.9623   -2.1341   -1.4762 H   0  0  0  0  0  0  0  0  0  0  0  0
    3.4478   -2.9904   -0.0258 H   0  0  0  0  0  0  0  0  0  0  0  0
   -5.0198   -1.5311   -0.0033 H   0  0  0  0  0  0  0  0  0  0  0  0
   -3.9908   -1.1747   -1.3990 H   0  0  0  0  0  0  0  0  0  0  0  0
   -3.9188   -2.7466   -0.6024 H   0  0  0  0  0  0  0  0  0  0  0  0
   -2.1861    0.0132    2.4845 H   0  0  0  0  0  0  0  0  0  0  0  0
    2.9376    1.6733   -2.1992 H   0  0  0  0  0  0  0  0  0  0  0  0
    4.2640    0.5201   -2.2212 H   0  0  0  0  0  0  0  0  0  0  0  0
    2.6045   -0.0417   -2.4041 H   0  0  0  0  0  0  0  0  0  0  0  0
    3.6118    2.6701    0.1004 H   0  0  0  0  0  0  0  0  0  0  0  0
    5.2636   -1.9703    1.0280 H   0  0  0  0  0  0  0  0  0  0  0  0
   -5.2211    1.7807    1.6431 H   0  0  0  0  0  0  0  0  0  0  0  0
   -5.3074    0.0626    1.2750 H   0  0  0  0  0  0  0  0  0  0  0  0
    5.5976    2.3752    1.3906 H   0  0  0  0  0  0  0  0  0  0  0  0
   -6.2449    0.6209   -0.7324 H   0  0  0  0  0  0  0  0  0  0  0  0
  1  9  1  0  0  0  0
  1 46  1  0  0  0  0
  2 16  2  0  0  0  0
  3 20  2  0  0  0  0
  4 25  1  0  0  0  0
  4 55  1  0  0  0  0
  5 27  2  0  0  0  0
  6  7  1  1  0  0  0
  6 13  1  0  0  0  0
  6 17  1  0  0  0  0
  7  8  1  6  0  0  0
  7 11  1  0  0  0  0
  7 28  1  0  0  0  0
  8 10  1  1  0  0  0
  8 15  1  0  0  0  0
  8 29  1  0  0  0  0
  9  6  1  6  0  0  0
  9 20  1  0  0  0  0
 10 14  1  6  0  0  0
 10 16  1  0  0  0  0
 10 30  1  0  0  0  0
 11 12  1  0  0  0  0
 11 31  1  0  0  0  0
 11 32  1  0  0  0  0
 12  9  1  1  0  0  0
 12 21  1  0  0  0  0
 12 33  1  0  0  0  0
 13 16  1  0  0  0  0
 13 34  1  0  0  0  0
 13 35  1  0  0  0  0
 14 19  1  0  0  0  0
 14 22  1  6  0  0  0
 14 23  1  0  0  0  0
 15 18  1  0  0  0  0
 15 36  1  0  0  0  0
 15 37  1  0  0  0  0
 17 38  1  0  0  0  0
 17 39  1  0  0  0  0
 17 40  1  0  0  0  0
 18 19  1  0  0  0  0
 18 41  1  0  0  0  0
 18 42  1  0  0  0  0
 19 24  2  0  0  0  0
 20 25  1  0  0  0  0
 21 43  1  0  0  0  0
 21 44  1  0  0  0  0
 21 45  1  0  0  0  0
 22 47  1  0  0  0  0
 22 48  1  0  0  0  0
 22 49  1  0  0  0  0
 23 26  2  0  0  0  0
 23 50  1  0  0  0  0
 24 27  1  0  0  0  0
 24 51  1  0  0  0  0
 25 52  1  0  0  0  0
 25 53  1  0  0  0  0
 26 27  1  0  0  0  0
 26 54  1  0  0  0  0
M  END
