DB09257
 OpenBabel07062211533D

 13 13  0  0  0  0  0  0  0  0999 V2000
   -0.8203   -2.9102    0.0000 Cl  0  0  0  0  0  0  0  0  0  0  0  0
   -2.4563   -0.4100   -0.0001 O   0  0  0  0  0  0  0  0  0  0  0  0
    1.2887    2.4714   -0.0001 O   0  0  0  0  0  0  0  0  0  0  0  0
    1.6334    0.1870   -0.0000 N   0  0  0  0  0  0  0  0  0  0  0  0
   -1.0982   -0.1674   -0.0000 C   0  0  0  0  0  0  0  0  0  0  0  0
   -0.1968   -1.3029   -0.0001 C   0  0  0  0  0  0  0  0  0  0  0  0
   -0.6280    1.0881    0.0001 C   0  0  0  0  0  0  0  0  0  0  0  0
    1.1256   -1.0889    0.0000 C   0  0  0  0  0  0  0  0  0  0  0  0
    0.8452    1.3260   -0.0000 C   0  0  0  0  0  0  0  0  0  0  0  0
   -1.2775    1.9559    0.0002 H   0  0  0  0  0  0  0  0  0  0  0  0
    1.8621   -1.8834    0.0001 H   0  0  0  0  0  0  0  0  0  0  0  0
    2.6440    0.2901   -0.0000 H   0  0  0  0  0  0  0  0  0  0  0  0
   -2.9218    0.4442   -0.0000 H   0  0  0  0  0  0  0  0  0  0  0  0
  1  6  1  0  0  0  0
  2  5  1  0  0  0  0
  2 13  1  0  0  0  0
  3  9  2  0  0  0  0
  4  8  1  0  0  0  0
  4  9  1  0  0  0  0
  4 12  1  0  0  0  0
  5  6  1  0  0  0  0
  5  7  2  0  0  0  0
  6  8  2  0  0  0  0
  7  9  1  0  0  0  0
  7 10  1  0  0  0  0
  8 11  1  0  0  0  0
M  END
