DB09563
 OpenBabel07062211533D

 21 20  0  0  0  0  0  0  0  0999 V2000
   -3.1041   -0.2142    0.4309 O   0  0  0  0  0  0  0  0  0  0  0  0
    0.6002   -0.0446    0.0115 N   0  3  0  0  0  0  0  0  0  0  0  0
   -0.7425   -0.6427    0.4064 C   0  0  0  0  0  0  0  0  0  0  0  0
    0.7898    1.2887    0.7205 C   0  0  0  0  0  0  0  0  0  0  0  0
    1.7173   -0.9966    0.4136 C   0  0  0  0  0  0  0  0  0  0  0  0
    0.6359    0.1721   -1.4945 C   0  0  0  0  0  0  0  0  0  0  0  0
   -1.8498    0.3226    0.0320 C   0  0  0  0  0  0  0  0  0  0  0  0
   -0.8568   -1.6055   -0.1061 H   0  0  0  0  0  0  0  0  0  0  0  0
   -0.7308   -0.8354    1.4860 H   0  0  0  0  0  0  0  0  0  0  0  0
    0.5749    1.1558    1.7848 H   0  0  0  0  0  0  0  0  0  0  0  0
    1.8327    1.5951    0.5878 H   0  0  0  0  0  0  0  0  0  0  0  0
    0.1469    2.0508    0.2733 H   0  0  0  0  0  0  0  0  0  0  0  0
    1.5614   -1.9488   -0.1021 H   0  0  0  0  0  0  0  0  0  0  0  0
    2.6753   -0.5569    0.1206 H   0  0  0  0  0  0  0  0  0  0  0  0
    1.6780   -1.1363    1.4980 H   0  0  0  0  0  0  0  0  0  0  0  0
    0.3364   -0.7558   -1.9904 H   0  0  0  0  0  0  0  0  0  0  0  0
   -0.0189    1.0012   -1.7730 H   0  0  0  0  0  0  0  0  0  0  0  0
    1.6629    0.4293   -1.7737 H   0  0  0  0  0  0  0  0  0  0  0  0
   -1.7708    1.2841    0.5419 H   0  0  0  0  0  0  0  0  0  0  0  0
   -1.9214    0.5030   -1.0429 H   0  0  0  0  0  0  0  0  0  0  0  0
   -3.2169   -1.0660   -0.0245 H   0  0  0  0  0  0  0  0  0  0  0  0
  1  7  1  0  0  0  0
  1 21  1  0  0  0  0
  2  3  1  0  0  0  0
  2  4  1  0  0  0  0
  2  5  1  0  0  0  0
  2  6  1  0  0  0  0
  3  7  1  0  0  0  0
  3  8  1  0  0  0  0
  3  9  1  0  0  0  0
  4 10  1  0  0  0  0
  4 11  1  0  0  0  0
  4 12  1  0  0  0  0
  5 13  1  0  0  0  0
  5 14  1  0  0  0  0
  5 15  1  0  0  0  0
  6 16  1  0  0  0  0
  6 17  1  0  0  0  0
  6 18  1  0  0  0  0
  7 19  1  0  0  0  0
  7 20  1  0  0  0  0
M  CHG  1   2   1
M  END
