DB09070
 OpenBabel07062211533D

 51 54  0  0  1  0  0  0  0  0999 V2000
    4.6392    1.2011    0.7204 O   0  0  0  0  0  0  0  0  0  0  0  0
   -5.9937    0.9063    1.0718 O   0  0  0  0  0  0  0  0  0  0  0  0
    1.5365   -0.6100   -0.0500 C   0  0  2  0  0  0  0  0  0  0  0  0
    2.2240    0.6788    0.4673 C   0  0  1  0  0  0  0  0  0  0  0  0
    0.0540   -0.6743    0.3306 C   0  0  1  0  0  0  0  0  0  0  0  0
   -0.6763    0.5321   -0.3340 C   0  0  2  0  0  0  0  0  0  0  0  0
    3.6943    0.4059    0.0191 C   0  0  2  0  0  0  0  0  0  0  0  0
    1.5082    1.8928   -0.1579 C   0  0  0  0  0  0  0  0  0  0  0  0
    2.4707   -1.7225    0.4161 C   0  0  0  0  0  0  0  0  0  0  0  0
   -0.0135    1.8673    0.0990 C   0  0  0  0  0  0  0  0  0  0  0  0
   -0.6484   -2.0046   -0.0015 C   0  0  1  0  0  0  0  0  0  0  0  0
    3.8830   -1.1030    0.3405 C   0  0  0  0  0  0  0  0  0  0  0  0
   -2.1866    0.4785   -0.1121 C   0  0  0  0  0  0  0  0  0  0  0  0
    2.1731    0.8387    2.0162 C   0  0  0  0  0  0  0  0  0  0  0  0
   -2.0797   -1.9450    0.5645 C   0  0  0  0  0  0  0  0  0  0  0  0
   -2.8108   -0.6414    0.3187 C   0  0  0  0  0  0  0  0  0  0  0  0
   -0.6598   -2.3620   -1.4922 C   0  0  0  0  0  0  0  0  0  0  0  0
   -2.9636    1.7338   -0.4449 C   0  0  0  0  0  0  0  0  0  0  0  0
    3.9166    0.6372   -1.4223 C   0  0  0  0  0  0  0  0  0  0  0  0
   -4.2900   -0.7150    0.6040 C   0  0  0  0  0  0  0  0  0  0  0  0
   -4.4541    1.5101   -0.6564 C   0  0  0  0  0  0  0  0  0  0  0  0
   -4.9855    0.6162    0.4295 C   0  0  0  0  0  0  0  0  0  0  0  0
    4.0980    0.8251   -2.5940 C   0  0  0  0  0  0  0  0  0  0  0  0
    1.5784   -0.6106   -1.1497 H   0  0  0  0  0  0  0  0  0  0  0  0
   -0.0253   -0.5659    1.4205 H   0  0  0  0  0  0  0  0  0  0  0  0
   -0.5339    0.4662   -1.4227 H   0  0  0  0  0  0  0  0  0  0  0  0
    1.6514    1.9139   -1.2443 H   0  0  0  0  0  0  0  0  0  0  0  0
    1.9302    2.8289    0.2267 H   0  0  0  0  0  0  0  0  0  0  0  0
    2.3946   -2.6107   -0.2193 H   0  0  0  0  0  0  0  0  0  0  0  0
    2.2467   -2.0324    1.4429 H   0  0  0  0  0  0  0  0  0  0  0  0
   -0.2243    2.0639    1.1566 H   0  0  0  0  0  0  0  0  0  0  0  0
   -0.4516    2.7046   -0.4571 H   0  0  0  0  0  0  0  0  0  0  0  0
   -0.1267   -2.8195    0.5170 H   0  0  0  0  0  0  0  0  0  0  0  0
    4.3997   -1.2429    1.2977 H   0  0  0  0  0  0  0  0  0  0  0  0
    4.4865   -1.6175   -0.4171 H   0  0  0  0  0  0  0  0  0  0  0  0
    2.6729    0.0169    2.5381 H   0  0  0  0  0  0  0  0  0  0  0  0
    2.6745    1.7644    2.3224 H   0  0  0  0  0  0  0  0  0  0  0  0
    1.1560    0.8915    2.4115 H   0  0  0  0  0  0  0  0  0  0  0  0
   -2.0359   -2.1009    1.6507 H   0  0  0  0  0  0  0  0  0  0  0  0
   -2.6635   -2.7788    0.1547 H   0  0  0  0  0  0  0  0  0  0  0  0
   -1.1345   -3.3380   -1.6432 H   0  0  0  0  0  0  0  0  0  0  0  0
   -1.2133   -1.6351   -2.0935 H   0  0  0  0  0  0  0  0  0  0  0  0
    0.3557   -2.4336   -1.8923 H   0  0  0  0  0  0  0  0  0  0  0  0
   -2.8187    2.4557    0.3686 H   0  0  0  0  0  0  0  0  0  0  0  0
   -2.5636    2.1860   -1.3604 H   0  0  0  0  0  0  0  0  0  0  0  0
    4.4012    2.1352    0.5900 H   0  0  0  0  0  0  0  0  0  0  0  0
   -4.7674   -1.4320   -0.0726 H   0  0  0  0  0  0  0  0  0  0  0  0
   -4.4455   -1.0428    1.6380 H   0  0  0  0  0  0  0  0  0  0  0  0
   -4.6504    1.0290   -1.6212 H   0  0  0  0  0  0  0  0  0  0  0  0
   -4.9867    2.4666   -0.6409 H   0  0  0  0  0  0  0  0  0  0  0  0
    4.2577    0.9919   -3.6335 H   0  0  0  0  0  0  0  0  0  0  0  0
  1  7  1  0  0  0  0
  1 46  1  0  0  0  0
  2 22  2  0  0  0  0
  3  4  1  1  0  0  0
  3  9  1  0  0  0  0
  3 24  1  0  0  0  0
  4  7  1  6  0  0  0
  4  8  1  0  0  0  0
  4 14  1  0  0  0  0
  5  3  1  6  0  0  0
  5 25  1  0  0  0  0
  6  5  1  1  0  0  0
  6 10  1  0  0  0  0
  6 13  1  0  0  0  0
  6 26  1  0  0  0  0
  7 12  1  0  0  0  0
  7 19  1  6  0  0  0
  8 10  1  0  0  0  0
  8 27  1  0  0  0  0
  8 28  1  0  0  0  0
  9 12  1  0  0  0  0
  9 29  1  0  0  0  0
  9 30  1  0  0  0  0
 10 31  1  0  0  0  0
 10 32  1  0  0  0  0
 11  5  1  1  0  0  0
 11 15  1  0  0  0  0
 11 17  1  0  0  0  0
 11 33  1  0  0  0  0
 12 34  1  0  0  0  0
 12 35  1  0  0  0  0
 13 16  2  0  0  0  0
 13 18  1  0  0  0  0
 14 36  1  0  0  0  0
 14 37  1  0  0  0  0
 14 38  1  0  0  0  0
 15 16  1  0  0  0  0
 15 39  1  0  0  0  0
 15 40  1  0  0  0  0
 16 20  1  0  0  0  0
 17 41  1  0  0  0  0
 17 42  1  0  0  0  0
 17 43  1  0  0  0  0
 18 21  1  0  0  0  0
 18 44  1  0  0  0  0
 18 45  1  0  0  0  0
 19 23  3  0  0  0  0
 20 22  1  0  0  0  0
 20 47  1  0  0  0  0
 20 48  1  0  0  0  0
 21 22  1  0  0  0  0
 21 49  1  0  0  0  0
 21 50  1  0  0  0  0
 23 51  1  0  0  0  0
M  END
