DB09185
 OpenBabel07062211533D

 36 37  0  0  1  0  0  0  0  0999 V2000
   -1.6780   -0.3381   -0.1461 O   0  0  0  0  0  0  0  0  0  0  0  0
    0.5061    1.0915   -1.0411 O   0  0  0  0  0  0  0  0  0  0  0  0
    1.7741   -1.3616   -0.7240 O   0  0  0  0  0  0  0  0  0  0  0  0
   -4.1463    1.0008    0.3112 N   0  0  0  0  0  0  0  0  0  0  0  0
   -1.7987    1.0640   -0.4136 C   0  0  1  0  0  0  0  0  0  0  0  0
   -2.8610    1.6767    0.5035 C   0  0  0  0  0  0  0  0  0  0  0  0
   -4.0001   -0.4373    0.5423 C   0  0  0  0  0  0  0  0  0  0  0  0
   -0.4367    1.7017   -0.1770 C   0  0  0  0  0  0  0  0  0  0  0  0
   -2.9193   -1.0102   -0.3657 C   0  0  0  0  0  0  0  0  0  0  0  0
    1.8047    1.0292   -0.6010 C   0  0  0  0  0  0  0  0  0  0  0  0
    2.4309   -0.2014   -0.4445 C   0  0  0  0  0  0  0  0  0  0  0  0
    2.4786    2.2107   -0.3150 C   0  0  0  0  0  0  0  0  0  0  0  0
    3.7507   -0.2514    0.0045 C   0  0  0  0  0  0  0  0  0  0  0  0
    3.7982    2.1604    0.1342 C   0  0  0  0  0  0  0  0  0  0  0  0
    4.4343    0.9295    0.2939 C   0  0  0  0  0  0  0  0  0  0  0  0
    1.6233   -2.2945    0.3442 C   0  0  0  0  0  0  0  0  0  0  0  0
    0.8607   -3.5014   -0.1593 C   0  0  0  0  0  0  0  0  0  0  0  0
   -2.0703    1.1865   -1.4708 H   0  0  0  0  0  0  0  0  0  0  0  0
   -2.5659    1.5853    1.5562 H   0  0  0  0  0  0  0  0  0  0  0  0
   -2.9801    2.7445    0.2903 H   0  0  0  0  0  0  0  0  0  0  0  0
   -4.9555   -0.9376    0.3542 H   0  0  0  0  0  0  0  0  0  0  0  0
   -3.7417   -0.6078    1.5942 H   0  0  0  0  0  0  0  0  0  0  0  0
   -0.1404    1.5542    0.8702 H   0  0  0  0  0  0  0  0  0  0  0  0
   -0.4762    2.7765   -0.3869 H   0  0  0  0  0  0  0  0  0  0  0  0
   -2.7665   -2.0704   -0.1402 H   0  0  0  0  0  0  0  0  0  0  0  0
   -3.1947   -0.9333   -1.4244 H   0  0  0  0  0  0  0  0  0  0  0  0
   -4.4570    1.1506   -0.6492 H   0  0  0  0  0  0  0  0  0  0  0  0
    1.9977    3.1762   -0.4430 H   0  0  0  0  0  0  0  0  0  0  0  0
    4.2697   -1.1989    0.1181 H   0  0  0  0  0  0  0  0  0  0  0  0
    4.3315    3.0800    0.3568 H   0  0  0  0  0  0  0  0  0  0  0  0
    5.4633    0.8910    0.6392 H   0  0  0  0  0  0  0  0  0  0  0  0
    2.5995   -2.6243    0.7152 H   0  0  0  0  0  0  0  0  0  0  0  0
    1.0711   -1.8234    1.1659 H   0  0  0  0  0  0  0  0  0  0  0  0
    0.7200   -4.2363    0.6384 H   0  0  0  0  0  0  0  0  0  0  0  0
   -0.1211   -3.2043   -0.5426 H   0  0  0  0  0  0  0  0  0  0  0  0
    1.3951   -3.9771   -0.9882 H   0  0  0  0  0  0  0  0  0  0  0  0
  1  5  1  0  0  0  0
  1  9  1  0  0  0  0
  2  8  1  0  0  0  0
  2 10  1  0  0  0  0
  3 11  1  0  0  0  0
  3 16  1  0  0  0  0
  4  6  1  0  0  0  0
  4  7  1  0  0  0  0
  4 27  1  0  0  0  0
  5  6  1  0  0  0  0
  5  8  1  0  0  0  0
  5 18  1  6  0  0  0
  6 19  1  0  0  0  0
  6 20  1  0  0  0  0
  7  9  1  0  0  0  0
  7 21  1  0  0  0  0
  7 22  1  0  0  0  0
  8 23  1  0  0  0  0
  8 24  1  0  0  0  0
  9 25  1  0  0  0  0
  9 26  1  0  0  0  0
 10 11  2  0  0  0  0
 10 12  1  0  0  0  0
 11 13  1  0  0  0  0
 12 14  2  0  0  0  0
 12 28  1  0  0  0  0
 13 15  2  0  0  0  0
 13 29  1  0  0  0  0
 14 15  1  0  0  0  0
 14 30  1  0  0  0  0
 15 31  1  0  0  0  0
 16 17  1  0  0  0  0
 16 32  1  0  0  0  0
 16 33  1  0  0  0  0
 17 34  1  0  0  0  0
 17 35  1  0  0  0  0
 17 36  1  0  0  0  0
M  END
