DB09050
 OpenBabel07062211533D

 75 78  0  0  1  0  0  0  0  0999 V2000
   -0.8139    0.9674   -0.3809 S   0  0  0  0  0  0  0  0  0  0  0  0
   -7.2779    4.8681   -1.0370 S   0  0  0  0  0  0  0  0  0  0  0  0
   -3.5003   -2.6382   -1.5623 O   0  0  0  0  0  0  0  0  0  0  0  0
   -0.7743   -4.2396   -1.2834 O   0  0  0  0  0  0  0  0  0  0  0  0
   -0.9128   -4.0229    0.9890 O   0  0  0  0  0  0  0  0  0  0  0  0
   -5.7538   -0.3889   -1.9216 O   0  0  0  0  0  0  0  0  0  0  0  0
   -5.6008   -0.2498    1.1701 O   0  0  0  0  0  0  0  0  0  0  0  0
    5.9762    0.9983    1.7017 O   0  0  0  0  0  0  0  0  0  0  0  0
   -8.0947   -1.3019    1.9386 O   0  0  0  0  0  0  0  0  0  0  0  0
   -7.8953    0.3665    3.4804 O   0  0  0  0  0  0  0  0  0  0  0  0
   -1.4870   -1.4882   -1.1328 N   0  0  0  0  0  0  0  0  0  0  0  0
   -3.7362    0.5973   -1.2387 N   0  0  0  0  0  0  0  0  0  0  0  0
    2.9859   -1.8704    0.2123 N   0  0  0  0  0  0  0  0  0  0  0  0
    3.5178   -2.4965   -0.9837 N   0  0  0  0  0  0  0  0  0  0  0  0
    6.2561   -0.3349   -0.2211 N   0  0  0  0  0  0  0  0  0  0  0  0
    5.4635   -2.4474   -2.3552 N   0  0  0  0  0  0  0  0  0  0  0  0
   -6.0965    1.0265    0.8694 N   0  0  0  0  0  0  0  0  0  0  0  0
   -6.0218    3.0088   -2.2143 N   0  0  0  0  0  0  0  0  0  0  0  0
   -6.9479    3.5203   -0.1015 N   0  0  0  0  0  0  0  0  0  0  0  0
    7.9205    1.1481    0.4603 N   0  0  0  0  0  0  0  0  0  0  0  0
   -6.4630    4.9010   -3.5915 N   0  0  0  0  0  0  0  0  0  0  0  0
    8.8899    4.5493    1.6266 N   0  0  0  0  0  0  0  0  0  0  0  0
   -1.3082   -0.1643   -1.7005 C   0  0  1  0  0  0  0  0  0  0  0  0
   -2.8148   -0.2102   -2.0370 C   0  0  1  0  0  0  0  0  0  0  0  0
   -2.7418   -1.6973   -1.5872 C   0  0  0  0  0  0  0  0  0  0  0  0
   -0.5413   -2.1288   -0.3983 C   0  0  0  0  0  0  0  0  0  0  0  0
    0.5276   -1.4690    0.1079 C   0  0  0  0  0  0  0  0  0  0  0  0
    0.7144    0.0420   -0.0085 C   0  0  0  0  0  0  0  0  0  0  0  0
    1.6599   -2.1231    0.8628 C   0  0  0  0  0  0  0  0  0  0  0  0
   -0.7641   -3.5558   -0.1223 C   0  0  0  0  0  0  0  0  0  0  0  0
   -5.1084    0.4169   -1.2704 C   0  0  0  0  0  0  0  0  0  0  0  0
    3.9704   -0.9932    0.6153 C   0  0  0  0  0  0  0  0  0  0  0  0
    4.7760   -2.0063   -1.2798 C   0  0  0  0  0  0  0  0  0  0  0  0
    5.0890   -1.0602   -0.2938 C   0  0  0  0  0  0  0  0  0  0  0  0
   -5.8483    1.3617   -0.3608 C   0  0  0  0  0  0  0  0  0  0  0  0
    2.7891   -3.4960   -1.7335 C   0  0  0  0  0  0  0  0  0  0  0  0
   -6.2926    2.6759   -0.8979 C   0  0  0  0  0  0  0  0  0  0  0  0
    6.6492    0.6364    0.7395 C   0  0  0  0  0  0  0  0  0  0  0  0
   -5.9127   -0.5359    2.5247 C   0  0  0  0  0  0  0  0  0  0  0  0
   -6.5166    4.2084   -2.4266 C   0  0  0  0  0  0  0  0  0  0  0  0
    8.5637    2.1513    1.2774 C   0  0  0  0  0  0  0  0  0  0  0  0
   -5.4572   -1.9623    2.8178 C   0  0  0  0  0  0  0  0  0  0  0  0
   -5.1685    0.4575    3.4097 C   0  0  0  0  0  0  0  0  0  0  0  0
   -7.4513   -0.4869    2.6582 C   0  0  0  0  0  0  0  0  0  0  0  0
    8.2241    3.5542    0.7961 C   0  0  0  0  0  0  0  0  0  0  0  0
   -0.6557   -0.1627   -2.5817 H   0  0  0  0  0  0  0  0  0  0  0  0
   -3.0178   -0.1000   -3.1089 H   0  0  0  0  0  0  0  0  0  0  0  0
    1.0897    0.4452    0.9379 H   0  0  0  0  0  0  0  0  0  0  0  0
    1.4522    0.2634   -0.7870 H   0  0  0  0  0  0  0  0  0  0  0  0
   -3.3686    1.3252   -0.6303 H   0  0  0  0  0  0  0  0  0  0  0  0
    1.5601   -3.2076    0.9568 H   0  0  0  0  0  0  0  0  0  0  0  0
    1.7059   -1.7243    1.8834 H   0  0  0  0  0  0  0  0  0  0  0  0
    3.8458   -0.3791    1.4949 H   0  0  0  0  0  0  0  0  0  0  0  0
    2.1756   -4.0761   -1.0434 H   0  0  0  0  0  0  0  0  0  0  0  0
    2.1631   -2.9786   -2.4632 H   0  0  0  0  0  0  0  0  0  0  0  0
    3.4815   -4.1792   -2.2278 H   0  0  0  0  0  0  0  0  0  0  0  0
   -0.9192   -5.1999   -1.1452 H   0  0  0  0  0  0  0  0  0  0  0  0
    6.9254   -0.5274   -0.9619 H   0  0  0  0  0  0  0  0  0  0  0  0
    6.3896   -2.0927   -2.5732 H   0  0  0  0  0  0  0  0  0  0  0  0
    5.1002   -3.1278   -3.0138 H   0  0  0  0  0  0  0  0  0  0  0  0
    8.4122    0.8085   -0.3606 H   0  0  0  0  0  0  0  0  0  0  0  0
    8.2548    2.0119    2.3198 H   0  0  0  0  0  0  0  0  0  0  0  0
    9.6425    1.9706    1.2161 H   0  0  0  0  0  0  0  0  0  0  0  0
   -5.7355   -2.2751    3.8297 H   0  0  0  0  0  0  0  0  0  0  0  0
   -5.8853   -2.6786    2.1070 H   0  0  0  0  0  0  0  0  0  0  0  0
   -4.3692   -2.0502    2.7148 H   0  0  0  0  0  0  0  0  0  0  0  0
   -5.5238    1.4862    3.2812 H   0  0  0  0  0  0  0  0  0  0  0  0
   -5.2820    0.2062    4.4702 H   0  0  0  0  0  0  0  0  0  0  0  0
   -4.0984    0.4662    3.1719 H   0  0  0  0  0  0  0  0  0  0  0  0
    7.1408    3.7174    0.8280 H   0  0  0  0  0  0  0  0  0  0  0  0
    8.5397    3.6823   -0.2454 H   0  0  0  0  0  0  0  0  0  0  0  0
   -6.0154    4.5213   -4.4192 H   0  0  0  0  0  0  0  0  0  0  0  0
   -6.8682    5.8268   -3.6828 H   0  0  0  0  0  0  0  0  0  0  0  0
    8.5752    4.4578    2.5918 H   0  0  0  0  0  0  0  0  0  0  0  0
    8.6136    5.4823    1.3235 H   0  0  0  0  0  0  0  0  0  0  0  0
  1 23  1  0  0  0  0
  1 28  1  0  0  0  0
  2 19  1  0  0  0  0
  2 40  1  0  0  0  0
  3 25  2  0  0  0  0
  4 30  1  0  0  0  0
  4 57  1  0  0  0  0
  5 30  2  0  0  0  0
  6 31  2  0  0  0  0
  7 17  1  0  0  0  0
  7 39  1  0  0  0  0
  8 38  2  0  0  0  0
  9 44  2  0  0  0  0
 10 44  1  0  0  0  0
 11 23  1  0  0  0  0
 11 25  1  0  0  0  0
 11 26  1  0  0  0  0
 12 24  1  0  0  0  0
 12 31  1  0  0  0  0
 12 50  1  0  0  0  0
 13 14  1  0  0  0  0
 13 29  1  0  0  0  0
 13 32  2  0  0  0  0
 14 33  1  0  0  0  0
 14 36  1  0  0  0  0
 15 34  1  0  0  0  0
 15 38  1  0  0  0  0
 15 58  1  0  0  0  0
 16 33  1  0  0  0  0
 16 59  1  0  0  0  0
 16 60  1  0  0  0  0
 17 35  2  0  0  0  0
 18 37  1  0  0  0  0
 18 40  2  0  0  0  0
 19 37  2  0  0  0  0
 20 38  1  0  0  0  0
 20 41  1  0  0  0  0
 20 61  1  0  0  0  0
 21 40  1  0  0  0  0
 21 72  1  0  0  0  0
 21 73  1  0  0  0  0
 22 45  1  0  0  0  0
 22 74  1  0  0  0  0
 22 75  1  0  0  0  0
 23 24  1  6  0  0  0
 23 46  1  0  0  0  0
 24 25  1  0  0  0  0
 24 47  1  6  0  0  0
 26 27  2  0  0  0  0
 26 30  1  0  0  0  0
 27 28  1  0  0  0  0
 27 29  1  0  0  0  0
 28 48  1  0  0  0  0
 28 49  1  0  0  0  0
 29 51  1  0  0  0  0
 29 52  1  0  0  0  0
 31 35  1  0  0  0  0
 32 34  1  0  0  0  0
 32 53  1  0  0  0  0
 33 34  2  0  0  0  0
 35 37  1  0  0  0  0
 36 54  1  0  0  0  0
 36 55  1  0  0  0  0
 36 56  1  0  0  0  0
 39 42  1  0  0  0  0
 39 43  1  0  0  0  0
 39 44  1  0  0  0  0
 41 45  1  0  0  0  0
 41 62  1  0  0  0  0
 41 63  1  0  0  0  0
 42 64  1  0  0  0  0
 42 65  1  0  0  0  0
 42 66  1  0  0  0  0
 43 67  1  0  0  0  0
 43 68  1  0  0  0  0
 43 69  1  0  0  0  0
 45 70  1  0  0  0  0
 45 71  1  0  0  0  0
M  END
