DB09119
 OpenBabel07062211533D

 38 40  0  0  1  0  0  0  0  0999 V2000
   -0.7955   -1.5925    1.0681 O   0  0  0  0  0  0  0  0  0  0  0  0
    0.8192   -1.3823   -2.8486 O   0  0  0  0  0  0  0  0  0  0  0  0
   -3.0606   -1.1380    1.0729 O   0  0  0  0  0  0  0  0  0  0  0  0
    0.3284    0.0408   -1.0371 N   0  0  0  0  0  0  0  0  0  0  0  0
   -1.2813   -0.5624   -2.6715 N   0  0  0  0  0  0  0  0  0  0  0  0
   -0.5398   -0.3493    1.7157 C   0  0  1  0  0  0  0  0  0  0  0  0
    0.9403   -0.1878    2.0422 C   0  0  0  0  0  0  0  0  0  0  0  0
   -1.0243    0.7999    0.8800 C   0  0  0  0  0  0  0  0  0  0  0  0
    1.9373   -0.0298    0.9100 C   0  0  0  0  0  0  0  0  0  0  0  0
   -0.5836    0.9648   -0.4403 C   0  0  0  0  0  0  0  0  0  0  0  0
    1.6568    0.0257   -0.4737 C   0  0  0  0  0  0  0  0  0  0  0  0
   -1.9297    1.7261    1.4220 C   0  0  0  0  0  0  0  0  0  0  0  0
    3.2880    0.0120    1.3336 C   0  0  0  0  0  0  0  0  0  0  0  0
   -1.0598    2.0482   -1.1998 C   0  0  0  0  0  0  0  0  0  0  0  0
    2.7491    0.1157   -1.3680 C   0  0  0  0  0  0  0  0  0  0  0  0
   -2.3946    2.7985    0.6614 C   0  0  0  0  0  0  0  0  0  0  0  0
    0.0309   -0.6561   -2.2358 C   0  0  0  0  0  0  0  0  0  0  0  0
   -1.9596    2.9596   -0.6496 C   0  0  0  0  0  0  0  0  0  0  0  0
    4.3430    0.0973    0.4304 C   0  0  0  0  0  0  0  0  0  0  0  0
    4.0720    0.1482   -0.9251 C   0  0  0  0  0  0  0  0  0  0  0  0
   -2.1070   -1.8570    0.8067 C   0  0  0  0  0  0  0  0  0  0  0  0
   -2.2234   -3.1882    0.1281 C   0  0  0  0  0  0  0  0  0  0  0  0
   -1.0749   -0.3728    2.6753 H   0  0  0  0  0  0  0  0  0  0  0  0
    1.2458   -1.0731    2.6172 H   0  0  0  0  0  0  0  0  0  0  0  0
    1.0559    0.6874    2.6969 H   0  0  0  0  0  0  0  0  0  0  0  0
   -2.2808    1.6171    2.4453 H   0  0  0  0  0  0  0  0  0  0  0  0
    3.5226   -0.0340    2.3961 H   0  0  0  0  0  0  0  0  0  0  0  0
   -0.7206    2.2000   -2.2221 H   0  0  0  0  0  0  0  0  0  0  0  0
    2.5880    0.2140   -2.4396 H   0  0  0  0  0  0  0  0  0  0  0  0
   -3.0948    3.5073    1.0934 H   0  0  0  0  0  0  0  0  0  0  0  0
   -2.3177    3.7956   -1.2432 H   0  0  0  0  0  0  0  0  0  0  0  0
    5.3677    0.1254    0.7874 H   0  0  0  0  0  0  0  0  0  0  0  0
    4.8834    0.2275   -1.6425 H   0  0  0  0  0  0  0  0  0  0  0  0
   -1.5734   -1.0452   -3.5151 H   0  0  0  0  0  0  0  0  0  0  0  0
   -2.0184   -0.1023   -2.1507 H   0  0  0  0  0  0  0  0  0  0  0  0
   -1.8764   -3.9773    0.7997 H   0  0  0  0  0  0  0  0  0  0  0  0
   -1.6412   -3.1864   -0.7969 H   0  0  0  0  0  0  0  0  0  0  0  0
   -3.2711   -3.3766   -0.1229 H   0  0  0  0  0  0  0  0  0  0  0  0
  1  6  1  0  0  0  0
  1 21  1  0  0  0  0
  2 17  2  0  0  0  0
  3 21  2  0  0  0  0
  4 10  1  0  0  0  0
  4 11  1  0  0  0  0
  4 17  1  0  0  0  0
  5 17  1  0  0  0  0
  5 34  1  0  0  0  0
  5 35  1  0  0  0  0
  6  7  1  0  0  0  0
  6  8  1  0  0  0  0
  6 23  1  1  0  0  0
  7  9  1  0  0  0  0
  7 24  1  0  0  0  0
  7 25  1  0  0  0  0
  8 10  2  0  0  0  0
  8 12  1  0  0  0  0
  9 11  2  0  0  0  0
  9 13  1  0  0  0  0
 10 14  1  0  0  0  0
 11 15  1  0  0  0  0
 12 16  2  0  0  0  0
 12 26  1  0  0  0  0
 13 19  2  0  0  0  0
 13 27  1  0  0  0  0
 14 18  2  0  0  0  0
 14 28  1  0  0  0  0
 15 20  2  0  0  0  0
 15 29  1  0  0  0  0
 16 18  1  0  0  0  0
 16 30  1  0  0  0  0
 18 31  1  0  0  0  0
 19 20  1  0  0  0  0
 19 32  1  0  0  0  0
 20 33  1  0  0  0  0
 21 22  1  0  0  0  0
 22 36  1  0  0  0  0
 22 37  1  0  0  0  0
 22 38  1  0  0  0  0
M  END
