DB09499
 OpenBabel07062211533D

  7  6  0  0  0  0  0  0  0  0999 V2000
   -0.5360   -0.0001    0.1355 S   0  0  0  0  0  0  0  0  0  0  0  0
   -1.1417   -0.0007   -1.6029 S   0  0  0  0  0  0  0  0  0  0  0  0
    0.4094   -1.3024    0.3540 O   0  0  0  0  0  0  0  0  0  0  0  0
    0.4087    1.3027    0.3536 O   0  0  0  0  0  0  0  0  0  0  0  0
   -1.6746   -0.0001    1.0231 O   0  0  0  0  0  0  0  0  0  0  0  0
    1.2675   -1.2898   -0.1315 H   0  0  0  0  0  0  0  0  0  0  0  0
    1.2667    1.2905   -0.1318 H   0  0  0  0  0  0  0  0  0  0  0  0
  1  2  2  0  0  0  0
  1  3  1  0  0  0  0
  1  4  1  0  0  0  0
  1  5  2  0  0  0  0
  3  6  1  0  0  0  0
  4  7  1  0  0  0  0
M  END
