DB09097
 OpenBabel07062211533D

 60 62  0  0  1  0  0  0  0  0999 V2000
   -3.3046   -0.4690   -0.7630 S   0  0  0  0  0  0  0  0  0  0  0  0
    4.2635    4.0398   -0.7008 O   0  0  0  0  0  0  0  0  0  0  0  0
   -3.7841   -0.1351   -2.0920 O   0  0  0  0  0  0  0  0  0  0  0  0
   -3.3574   -1.8440   -0.2998 O   0  0  0  0  0  0  0  0  0  0  0  0
    0.8308   -1.5451   -0.3923 N   0  0  0  0  0  0  0  0  0  0  0  0
   -1.6920    0.0908   -0.6299 N   0  0  0  0  0  0  0  0  0  0  0  0
   -4.1236    0.5386    0.3870 N   0  0  0  0  0  0  0  0  0  0  0  0
    1.2939    0.8862   -0.7402 C   0  0  2  0  0  0  0  0  0  0  0  0
    1.8979   -0.5263   -0.5472 C   0  0  1  0  0  0  0  0  0  0  0  0
    0.2673    0.9237   -1.8808 C   0  0  0  0  0  0  0  0  0  0  0  0
   -0.7628   -0.1911   -1.7553 C   0  0  1  0  0  0  0  0  0  0  0  0
   -0.0892   -1.5457   -1.5437 C   0  0  0  0  0  0  0  0  0  0  0  0
    2.4055    1.9123   -1.0172 C   0  0  0  0  0  0  0  0  0  0  0  0
    2.8310   -0.4927    0.6871 C   0  0  0  0  0  0  0  0  0  0  0  0
    3.5432    1.8398   -0.0354 C   0  0  0  0  0  0  0  0  0  0  0  0
    3.7639    0.6922    0.7408 C   0  0  0  0  0  0  0  0  0  0  0  0
    1.3663   -2.8979   -0.2080 C   0  0  0  0  0  0  0  0  0  0  0  0
    0.2354   -3.8797    0.0878 C   0  0  0  0  0  0  0  0  0  0  0  0
    4.4317    2.9218    0.0634 C   0  0  0  0  0  0  0  0  0  0  0  0
    4.8497    0.6625    1.6304 C   0  0  0  0  0  0  0  0  0  0  0  0
    5.5126    2.8764    0.9429 C   0  0  0  0  0  0  0  0  0  0  0  0
    5.7202    1.7473    1.7286 C   0  0  0  0  0  0  0  0  0  0  0  0
    0.7671   -5.2880    0.3045 C   0  0  0  0  0  0  0  0  0  0  0  0
   -3.6589    0.4475    1.7989 C   0  0  0  0  0  0  0  0  0  0  0  0
   -4.3061    1.9564   -0.0279 C   0  0  0  0  0  0  0  0  0  0  0  0
   -4.8075    0.7596    2.7367 C   0  0  0  0  0  0  0  0  0  0  0  0
   -5.6075    2.1027   -0.7902 C   0  0  0  0  0  0  0  0  0  0  0  0
    0.7847    1.1756    0.1911 H   0  0  0  0  0  0  0  0  0  0  0  0
    2.5031   -0.7697   -1.4335 H   0  0  0  0  0  0  0  0  0  0  0  0
   -0.2295    1.9018   -1.9026 H   0  0  0  0  0  0  0  0  0  0  0  0
    0.7871    0.8106   -2.8415 H   0  0  0  0  0  0  0  0  0  0  0  0
   -1.3318   -0.2130   -2.6917 H   0  0  0  0  0  0  0  0  0  0  0  0
   -0.9068   -2.2579   -1.4298 H   0  0  0  0  0  0  0  0  0  0  0  0
    0.4533   -1.8229   -2.4579 H   0  0  0  0  0  0  0  0  0  0  0  0
    1.9405    2.9055   -0.9834 H   0  0  0  0  0  0  0  0  0  0  0  0
    2.8146    1.7616   -2.0245 H   0  0  0  0  0  0  0  0  0  0  0  0
    3.4530   -1.3956    0.6980 H   0  0  0  0  0  0  0  0  0  0  0  0
    2.2312   -0.4841    1.6071 H   0  0  0  0  0  0  0  0  0  0  0  0
    1.9373   -3.2219   -1.0875 H   0  0  0  0  0  0  0  0  0  0  0  0
    2.0410   -2.9372    0.6525 H   0  0  0  0  0  0  0  0  0  0  0  0
   -1.2485   -0.0474    0.2883 H   0  0  0  0  0  0  0  0  0  0  0  0
   -0.3241   -3.5624    0.9761 H   0  0  0  0  0  0  0  0  0  0  0  0
   -0.4756   -3.9753   -0.7357 H   0  0  0  0  0  0  0  0  0  0  0  0
    5.0226   -0.2121    2.2532 H   0  0  0  0  0  0  0  0  0  0  0  0
    6.1962    3.7175    1.0183 H   0  0  0  0  0  0  0  0  0  0  0  0
    6.5590    1.7101    2.4173 H   0  0  0  0  0  0  0  0  0  0  0  0
   -0.0566   -5.9775    0.5152 H   0  0  0  0  0  0  0  0  0  0  0  0
    1.4592   -5.3199    1.1522 H   0  0  0  0  0  0  0  0  0  0  0  0
    1.2946   -5.6505   -0.5837 H   0  0  0  0  0  0  0  0  0  0  0  0
    3.6795    3.8570   -1.4532 H   0  0  0  0  0  0  0  0  0  0  0  0
   -2.8191    1.1295    1.9724 H   0  0  0  0  0  0  0  0  0  0  0  0
   -3.3113   -0.5693    2.0102 H   0  0  0  0  0  0  0  0  0  0  0  0
   -3.4659    2.2799   -0.6528 H   0  0  0  0  0  0  0  0  0  0  0  0
   -4.3136    2.6377    0.8282 H   0  0  0  0  0  0  0  0  0  0  0  0
   -5.1573    1.7916    2.6460 H   0  0  0  0  0  0  0  0  0  0  0  0
   -5.6611    0.1014    2.5417 H   0  0  0  0  0  0  0  0  0  0  0  0
   -4.4952    0.6089    3.7752 H   0  0  0  0  0  0  0  0  0  0  0  0
   -5.6276    1.5067   -1.7056 H   0  0  0  0  0  0  0  0  0  0  0  0
   -6.4560    1.7890   -0.1725 H   0  0  0  0  0  0  0  0  0  0  0  0
   -5.7634    3.1491   -1.0717 H   0  0  0  0  0  0  0  0  0  0  0  0
  1  3  2  0  0  0  0
  1  4  2  0  0  0  0
  1  6  1  0  0  0  0
  1  7  1  0  0  0  0
  2 19  1  0  0  0  0
  2 50  1  0  0  0  0
  5  9  1  0  0  0  0
  5 12  1  0  0  0  0
  5 17  1  0  0  0  0
  6 11  1  0  0  0  0
  6 41  1  0  0  0  0
  7 24  1  0  0  0  0
  7 25  1  0  0  0  0
  8  9  1  1  0  0  0
  8 10  1  0  0  0  0
  8 13  1  0  0  0  0
  8 28  1  0  0  0  0
  9 14  1  0  0  0  0
  9 29  1  6  0  0  0
 10 11  1  0  0  0  0
 10 30  1  0  0  0  0
 10 31  1  0  0  0  0
 11 12  1  0  0  0  0
 11 32  1  6  0  0  0
 12 33  1  0  0  0  0
 12 34  1  0  0  0  0
 13 15  1  0  0  0  0
 13 35  1  0  0  0  0
 13 36  1  0  0  0  0
 14 16  1  0  0  0  0
 14 37  1  0  0  0  0
 14 38  1  0  0  0  0
 15 16  2  0  0  0  0
 15 19  1  0  0  0  0
 16 20  1  0  0  0  0
 17 18  1  0  0  0  0
 17 39  1  0  0  0  0
 17 40  1  0  0  0  0
 18 23  1  0  0  0  0
 18 42  1  0  0  0  0
 18 43  1  0  0  0  0
 19 21  2  0  0  0  0
 20 22  2  0  0  0  0
 20 44  1  0  0  0  0
 21 22  1  0  0  0  0
 21 45  1  0  0  0  0
 22 46  1  0  0  0  0
 23 47  1  0  0  0  0
 23 48  1  0  0  0  0
 23 49  1  0  0  0  0
 24 26  1  0  0  0  0
 24 51  1  0  0  0  0
 24 52  1  0  0  0  0
 25 27  1  0  0  0  0
 25 53  1  0  0  0  0
 25 54  1  0  0  0  0
 26 55  1  0  0  0  0
 26 56  1  0  0  0  0
 26 57  1  0  0  0  0
 27 58  1  0  0  0  0
 27 59  1  0  0  0  0
 27 60  1  0  0  0  0
M  END
