DB09462
 OpenBabel07062211533D

 14 13  0  0  0  0  0  0  0  0999 V2000
    0.2866    1.5335    0.1297 O   0  0  0  0  0  0  0  0  0  0  0  0
    2.4646   -0.1599    0.4067 O   0  0  0  0  0  0  0  0  0  0  0  0
   -2.3055    0.4693    0.4736 O   0  0  0  0  0  0  0  0  0  0  0  0
    0.0874    0.1567    0.4584 C   0  0  0  0  0  0  0  0  0  0  0  0
    1.2401   -0.6405   -0.1377 C   0  0  0  0  0  0  0  0  0  0  0  0
   -1.2538   -0.2929   -0.1097 C   0  0  0  0  0  0  0  0  0  0  0  0
    0.0911    0.0982    1.5519 H   0  0  0  0  0  0  0  0  0  0  0  0
    1.2940   -0.5258   -1.2255 H   0  0  0  0  0  0  0  0  0  0  0  0
    1.1519   -1.7045    0.1007 H   0  0  0  0  0  0  0  0  0  0  0  0
   -1.4331   -1.3511    0.1054 H   0  0  0  0  0  0  0  0  0  0  0  0
   -1.2945   -0.1342   -1.1926 H   0  0  0  0  0  0  0  0  0  0  0  0
    0.2820    1.6147   -0.8394 H   0  0  0  0  0  0  0  0  0  0  0  0
    2.5271    0.7868    0.1927 H   0  0  0  0  0  0  0  0  0  0  0  0
   -3.1379    0.1494    0.0858 H   0  0  0  0  0  0  0  0  0  0  0  0
  1  4  1  0  0  0  0
  1 12  1  0  0  0  0
  2  5  1  0  0  0  0
  2 13  1  0  0  0  0
  3  6  1  0  0  0  0
  3 14  1  0  0  0  0
  4  5  1  0  0  0  0
  4  6  1  0  0  0  0
  4  7  1  0  0  0  0
  5  8  1  0  0  0  0
  5  9  1  0  0  0  0
  6 10  1  0  0  0  0
  6 11  1  0  0  0  0
M  END
