DB09123
 OpenBabel07062211533D

 48 51  0  0  1  0  0  0  0  0999 V2000
    4.2347   -0.9286   -0.4695 O   0  0  0  0  0  0  0  0  0  0  0  0
   -6.0593   -0.3609    1.7186 O   0  0  0  0  0  0  0  0  0  0  0  0
    5.2713   -0.9380    2.9325 N   0  0  0  0  0  0  0  0  0  0  0  0
    1.8200   -0.4116   -0.6144 C   0  0  1  0  0  0  0  0  0  0  0  0
    1.0038    0.6927    0.0913 C   0  0  2  0  0  0  0  0  0  0  0  0
    3.1193   -0.4065    0.2493 C   0  0  2  0  0  0  0  0  0  0  0  0
   -0.3277    1.0133   -0.6048 C   0  0  1  0  0  0  0  0  0  0  0  0
    2.0158    1.8201    0.2736 C   0  0  0  0  0  0  0  0  0  0  0  0
    0.9702   -1.6937   -0.5904 C   0  0  0  0  0  0  0  0  0  0  0  0
    3.3556    1.1026    0.5234 C   0  0  0  0  0  0  0  0  0  0  0  0
   -1.1689   -0.2746   -0.7028 C   0  0  0  0  0  0  0  0  0  0  0  0
   -0.4077   -1.4804   -1.2467 C   0  0  0  0  0  0  0  0  0  0  0  0
    2.1781   -0.0705   -2.0903 C   0  0  0  0  0  0  0  0  0  0  0  0
   -1.0444    2.1623    0.1264 C   0  0  0  0  0  0  0  0  0  0  0  0
    3.0448   -1.1847    1.5687 C   0  0  0  0  0  0  0  0  0  0  0  0
   -2.4810   -0.2970   -0.3582 C   0  0  0  0  0  0  0  0  0  0  0  0
   -2.5086    2.2298   -0.2756 C   0  0  0  0  0  0  0  0  0  0  0  0
   -3.1775    0.9250    0.0666 C   0  0  0  0  0  0  0  0  0  0  0  0
   -3.3892   -1.5069   -0.4281 C   0  0  0  0  0  0  0  0  0  0  0  0
    4.2891   -1.0433    2.3237 C   0  0  0  0  0  0  0  0  0  0  0  0
   -4.3496    0.9119    0.7229 C   0  0  0  0  0  0  0  0  0  0  0  0
   -4.2406   -1.6462    0.8285 C   0  0  0  0  0  0  0  0  0  0  0  0
   -4.9867   -0.3673    1.1187 C   0  0  0  0  0  0  0  0  0  0  0  0
    0.7427    0.3452    1.1033 H   0  0  0  0  0  0  0  0  0  0  0  0
   -0.1422    1.3570   -1.6301 H   0  0  0  0  0  0  0  0  0  0  0  0
    1.7527    2.4714    1.1136 H   0  0  0  0  0  0  0  0  0  0  0  0
    2.0819    2.4483   -0.6218 H   0  0  0  0  0  0  0  0  0  0  0  0
    0.7961   -2.0252    0.4405 H   0  0  0  0  0  0  0  0  0  0  0  0
    1.4974   -2.5115   -1.0963 H   0  0  0  0  0  0  0  0  0  0  0  0
    4.1234    1.5187   -0.1406 H   0  0  0  0  0  0  0  0  0  0  0  0
    3.6891    1.3141    1.5445 H   0  0  0  0  0  0  0  0  0  0  0  0
   -0.9599   -2.4147   -1.1302 H   0  0  0  0  0  0  0  0  0  0  0  0
   -0.2883   -1.3474   -2.3283 H   0  0  0  0  0  0  0  0  0  0  0  0
    1.3008    0.1301   -2.7098 H   0  0  0  0  0  0  0  0  0  0  0  0
    2.8258    0.8084   -2.1705 H   0  0  0  0  0  0  0  0  0  0  0  0
    2.7102   -0.9069   -2.5583 H   0  0  0  0  0  0  0  0  0  0  0  0
   -0.5549    3.1149   -0.1096 H   0  0  0  0  0  0  0  0  0  0  0  0
   -0.9712    2.0318    1.2148 H   0  0  0  0  0  0  0  0  0  0  0  0
    2.9034   -2.2525    1.3621 H   0  0  0  0  0  0  0  0  0  0  0  0
    2.2060   -0.8573    2.1905 H   0  0  0  0  0  0  0  0  0  0  0  0
   -2.5991    2.4195   -1.3526 H   0  0  0  0  0  0  0  0  0  0  0  0
   -2.9854    3.0728    0.2389 H   0  0  0  0  0  0  0  0  0  0  0  0
    5.0538   -0.6096   -0.0548 H   0  0  0  0  0  0  0  0  0  0  0  0
   -4.0449   -1.3941   -1.3025 H   0  0  0  0  0  0  0  0  0  0  0  0
   -2.8512   -2.4461   -0.5661 H   0  0  0  0  0  0  0  0  0  0  0  0
   -4.8549    1.8259    1.0159 H   0  0  0  0  0  0  0  0  0  0  0  0
   -3.6225   -1.8898    1.7000 H   0  0  0  0  0  0  0  0  0  0  0  0
   -4.9703   -2.4505    0.6836 H   0  0  0  0  0  0  0  0  0  0  0  0
  1  6  1  0  0  0  0
  1 43  1  0  0  0  0
  2 23  2  0  0  0  0
  3 20  3  0  0  0  0
  4  5  1  1  0  0  0
  4  9  1  0  0  0  0
  4 13  1  0  0  0  0
  5  7  1  6  0  0  0
  5  8  1  0  0  0  0
  5 24  1  0  0  0  0
  6  4  1  6  0  0  0
  6 10  1  0  0  0  0
  6 15  1  0  0  0  0
  7 11  1  0  0  0  0
  7 14  1  0  0  0  0
  7 25  1  6  0  0  0
  8 10  1  0  0  0  0
  8 26  1  0  0  0  0
  8 27  1  0  0  0  0
  9 12  1  0  0  0  0
  9 28  1  0  0  0  0
  9 29  1  0  0  0  0
 10 30  1  0  0  0  0
 10 31  1  0  0  0  0
 11 12  1  0  0  0  0
 11 16  2  0  0  0  0
 12 32  1  0  0  0  0
 12 33  1  0  0  0  0
 13 34  1  0  0  0  0
 13 35  1  0  0  0  0
 13 36  1  0  0  0  0
 14 17  1  0  0  0  0
 14 37  1  0  0  0  0
 14 38  1  0  0  0  0
 15 20  1  0  0  0  0
 15 39  1  0  0  0  0
 15 40  1  0  0  0  0
 16 18  1  0  0  0  0
 16 19  1  0  0  0  0
 17 18  1  0  0  0  0
 17 41  1  0  0  0  0
 17 42  1  0  0  0  0
 18 21  2  0  0  0  0
 19 22  1  0  0  0  0
 19 44  1  0  0  0  0
 19 45  1  0  0  0  0
 21 23  1  0  0  0  0
 21 46  1  0  0  0  0
 22 23  1  0  0  0  0
 22 47  1  0  0  0  0
 22 48  1  0  0  0  0
M  END
