DB09348
 OpenBabel07062211533D

  9  9  0  0  0  0  0  0  0  0999 V2000
    0.0829    1.3578    0.0007 O   0  0  0  0  0  0  0  0  0  0  0  0
    2.2916    0.6531   -0.0002 O   0  0  0  0  0  0  0  0  0  0  0  0
    0.1497   -0.7591    0.0000 C   0  0  0  0  0  0  0  0  0  0  0  0
   -0.9324    0.3164   -0.0000 C   0  0  0  0  0  0  0  0  0  0  0  0
    1.0981    0.4528   -0.0001 C   0  0  0  0  0  0  0  0  0  0  0  0
    0.2097   -1.3715   -0.9011 H   0  0  0  0  0  0  0  0  0  0  0  0
    0.2099   -1.3714    0.9012 H   0  0  0  0  0  0  0  0  0  0  0  0
   -1.5544    0.3611   -0.8984 H   0  0  0  0  0  0  0  0  0  0  0  0
   -1.5550    0.3607    0.8979 H   0  0  0  0  0  0  0  0  0  0  0  0
  1  4  1  0  0  0  0
  1  5  1  0  0  0  0
  2  5  2  0  0  0  0
  3  4  1  0  0  0  0
  3  5  1  0  0  0  0
  3  6  1  0  0  0  0
  3  7  1  0  0  0  0
  4  8  1  0  0  0  0
  4  9  1  0  0  0  0
M  END
