DB09401
 OpenBabel07062211533D

 20 21  0  0  1  0  0  0  0  0999 V2000
    0.2381    1.2103    0.6998 O   0  0  0  0  0  0  0  0  0  0  0  0
   -0.3827   -1.6618   -0.1505 O   0  0  0  0  0  0  0  0  0  0  0  0
   -2.5309    1.1253    0.5202 O   0  0  0  0  0  0  0  0  0  0  0  0
    2.5623    0.3016   -1.0268 O   0  0  0  0  0  0  0  0  0  0  0  0
   -0.3557    0.6866   -0.5005 C   0  0  1  0  0  0  0  0  0  0  0  0
    0.3567   -0.6155   -0.8093 C   0  0  1  0  0  0  0  0  0  0  0  0
   -1.7765    0.2322   -0.2676 C   0  0  1  0  0  0  0  0  0  0  0  0
    1.7073   -0.4372   -0.1629 C   0  0  2  0  0  0  0  0  0  0  0  0
    1.3846    0.4161    1.0475 C   0  0  0  0  0  0  0  0  0  0  0  0
   -1.5756   -1.1010    0.4176 C   0  0  0  0  0  0  0  0  0  0  0  0
   -0.2592    1.4483   -1.2796 H   0  0  0  0  0  0  0  0  0  0  0  0
    0.3933   -0.8352   -1.8809 H   0  0  0  0  0  0  0  0  0  0  0  0
   -2.2838    0.0782   -1.2276 H   0  0  0  0  0  0  0  0  0  0  0  0
    2.1997   -1.3753    0.1092 H   0  0  0  0  0  0  0  0  0  0  0  0
    1.1017   -0.2027    1.9053 H   0  0  0  0  0  0  0  0  0  0  0  0
    2.1978    1.0851    1.3430 H   0  0  0  0  0  0  0  0  0  0  0  0
   -1.4376   -0.9971    1.4997 H   0  0  0  0  0  0  0  0  0  0  0  0
   -2.4154   -1.7829    0.2531 H   0  0  0  0  0  0  0  0  0  0  0  0
   -2.5277    1.9867    0.0688 H   0  0  0  0  0  0  0  0  0  0  0  0
    3.4035    0.4383   -0.5584 H   0  0  0  0  0  0  0  0  0  0  0  0
  1  5  1  0  0  0  0
  1  9  1  0  0  0  0
  2  6  1  0  0  0  0
  2 10  1  0  0  0  0
  3  7  1  0  0  0  0
  3 19  1  0  0  0  0
  4  8  1  0  0  0  0
  4 20  1  0  0  0  0
  5  6  1  6  0  0  0
  5 11  1  0  0  0  0
  6  8  1  1  0  0  0
  6 12  1  0  0  0  0
  7  5  1  6  0  0  0
  7 10  1  0  0  0  0
  7 13  1  0  0  0  0
  8  9  1  0  0  0  0
  8 14  1  1  0  0  0
  9 15  1  0  0  0  0
  9 16  1  0  0  0  0
 10 17  1  0  0  0  0
 10 18  1  0  0  0  0
M  END
