DB09214
 OpenBabel07062211533D

 33 34  0  0  1  0  0  0  0  0999 V2000
   -3.8148    2.6522    0.5009 O   0  0  0  0  0  0  0  0  0  0  0  0
    1.5990   -1.5059   -2.2946 O   0  0  0  0  0  0  0  0  0  0  0  0
   -1.6775    2.0955    1.0083 O   0  0  0  0  0  0  0  0  0  0  0  0
   -3.1338    0.3765    0.0651 C   0  0  2  0  0  0  0  0  0  0  0  0
   -1.9989   -0.5835    0.1865 C   0  0  0  0  0  0  0  0  0  0  0  0
   -0.8208   -0.3656   -0.5280 C   0  0  0  0  0  0  0  0  0  0  0  0
    0.2244   -1.2673   -0.4054 C   0  0  0  0  0  0  0  0  0  0  0  0
   -2.1162   -1.7003    1.0141 C   0  0  0  0  0  0  0  0  0  0  0  0
   -3.7002    0.4895   -1.3651 C   0  0  0  0  0  0  0  0  0  0  0  0
    0.1225   -2.3810    0.4131 C   0  0  0  0  0  0  0  0  0  0  0  0
   -1.0554   -2.5989    1.1274 C   0  0  0  0  0  0  0  0  0  0  0  0
    1.4682   -1.0380   -1.1597 C   0  0  0  0  0  0  0  0  0  0  0  0
   -2.7763    1.7781    0.5722 C   0  0  0  0  0  0  0  0  0  0  0  0
    2.5213   -0.2540   -0.5346 C   0  0  0  0  0  0  0  0  0  0  0  0
    2.3398    0.2590    0.7498 C   0  0  0  0  0  0  0  0  0  0  0  0
    3.7131   -0.0152   -1.2189 C   0  0  0  0  0  0  0  0  0  0  0  0
    3.3499    1.0109    1.3497 C   0  0  0  0  0  0  0  0  0  0  0  0
    4.7233    0.7366   -0.6189 C   0  0  0  0  0  0  0  0  0  0  0  0
    4.5416    1.2497    0.6654 C   0  0  0  0  0  0  0  0  0  0  0  0
   -3.9516    0.0354    0.7150 H   0  0  0  0  0  0  0  0  0  0  0  0
   -0.7185    0.5001   -1.1775 H   0  0  0  0  0  0  0  0  0  0  0  0
   -3.0268   -1.8857    1.5776 H   0  0  0  0  0  0  0  0  0  0  0  0
   -2.9877    0.9710   -2.0442 H   0  0  0  0  0  0  0  0  0  0  0  0
   -3.9369   -0.5013   -1.7684 H   0  0  0  0  0  0  0  0  0  0  0  0
   -4.6197    1.0846   -1.3804 H   0  0  0  0  0  0  0  0  0  0  0  0
    0.9436   -3.0862    0.5063 H   0  0  0  0  0  0  0  0  0  0  0  0
   -1.1466   -3.4685    1.7718 H   0  0  0  0  0  0  0  0  0  0  0  0
    1.4350    0.1062    1.3291 H   0  0  0  0  0  0  0  0  0  0  0  0
    3.8783   -0.4041   -2.2203 H   0  0  0  0  0  0  0  0  0  0  0  0
    3.2093    1.4109    2.3496 H   0  0  0  0  0  0  0  0  0  0  0  0
    5.6513    0.9229   -1.1514 H   0  0  0  0  0  0  0  0  0  0  0  0
    5.3280    1.8351    1.1325 H   0  0  0  0  0  0  0  0  0  0  0  0
   -3.5670    3.5412    0.8331 H   0  0  0  0  0  0  0  0  0  0  0  0
  1 13  1  0  0  0  0
  1 33  1  0  0  0  0
  2 12  2  0  0  0  0
  3 13  2  0  0  0  0
  4  5  1  0  0  0  0
  4  9  1  0  0  0  0
  4 13  1  0  0  0  0
  4 20  1  1  0  0  0
  5  6  2  0  0  0  0
  5  8  1  0  0  0  0
  6  7  1  0  0  0  0
  6 21  1  0  0  0  0
  7 10  2  0  0  0  0
  7 12  1  0  0  0  0
  8 11  2  0  0  0  0
  8 22  1  0  0  0  0
  9 23  1  0  0  0  0
  9 24  1  0  0  0  0
  9 25  1  0  0  0  0
 10 11  1  0  0  0  0
 10 26  1  0  0  0  0
 11 27  1  0  0  0  0
 12 14  1  0  0  0  0
 14 15  2  0  0  0  0
 14 16  1  0  0  0  0
 15 17  1  0  0  0  0
 15 28  1  0  0  0  0
 16 18  2  0  0  0  0
 16 29  1  0  0  0  0
 17 19  2  0  0  0  0
 17 30  1  0  0  0  0
 18 19  1  0  0  0  0
 18 31  1  0  0  0  0
 19 32  1  0  0  0  0
M  END
