DB09571
 OpenBabel07062211533D

 26 26  0  0  1  0  0  0  0  0999 V2000
    2.6368    0.4028   -0.6004 N   0  0  0  0  0  0  0  0  0  0  0  0
    1.3167    0.1674   -0.0081 C   0  0  1  0  0  0  0  0  0  0  0  0
    0.2244    0.4579   -1.0536 C   0  0  0  0  0  0  0  0  0  0  0  0
   -1.1795    0.2824   -0.5262 C   0  0  0  0  0  0  0  0  0  0  0  0
    1.2691   -1.2723    0.5041 C   0  0  0  0  0  0  0  0  0  0  0  0
   -1.7934   -0.9558   -0.6285 C   0  0  0  0  0  0  0  0  0  0  0  0
   -1.8281    1.3624    0.0509 C   0  0  0  0  0  0  0  0  0  0  0  0
    3.6841    0.1954    0.3856 C   0  0  0  0  0  0  0  0  0  0  0  0
   -3.0902   -1.1182   -0.1412 C   0  0  0  0  0  0  0  0  0  0  0  0
   -3.1249    1.2000    0.5385 C   0  0  0  0  0  0  0  0  0  0  0  0
   -3.7558   -0.0404    0.4424 C   0  0  0  0  0  0  0  0  0  0  0  0
    1.1683    0.8473    0.8417 H   0  0  0  0  0  0  0  0  0  0  0  0
    0.3602   -0.1876   -1.9329 H   0  0  0  0  0  0  0  0  0  0  0  0
    0.3337    1.4842   -1.4311 H   0  0  0  0  0  0  0  0  0  0  0  0
    1.9894   -1.4637    1.3056 H   0  0  0  0  0  0  0  0  0  0  0  0
    1.4486   -1.9945   -0.3004 H   0  0  0  0  0  0  0  0  0  0  0  0
    0.2989   -1.5048    0.9526 H   0  0  0  0  0  0  0  0  0  0  0  0
    2.6800    1.3653   -0.9358 H   0  0  0  0  0  0  0  0  0  0  0  0
   -1.2876   -1.8009   -1.0866 H   0  0  0  0  0  0  0  0  0  0  0  0
   -1.3441    2.3314    0.1323 H   0  0  0  0  0  0  0  0  0  0  0  0
    4.6174    0.6191   -0.0019 H   0  0  0  0  0  0  0  0  0  0  0  0
    3.8905   -0.8647    0.5590 H   0  0  0  0  0  0  0  0  0  0  0  0
    3.4763    0.6983    1.3361 H   0  0  0  0  0  0  0  0  0  0  0  0
   -3.5821   -2.0835   -0.2173 H   0  0  0  0  0  0  0  0  0  0  0  0
   -3.6432    2.0390    0.9934 H   0  0  0  0  0  0  0  0  0  0  0  0
   -4.7657   -0.1667    0.8218 H   0  0  0  0  0  0  0  0  0  0  0  0
  1  2  1  0  0  0  0
  1  8  1  0  0  0  0
  1 18  1  0  0  0  0
  2  3  1  0  0  0  0
  2  5  1  0  0  0  0
  2 12  1  1  0  0  0
  3  4  1  0  0  0  0
  3 13  1  0  0  0  0
  3 14  1  0  0  0  0
  4  6  2  0  0  0  0
  4  7  1  0  0  0  0
  5 15  1  0  0  0  0
  5 16  1  0  0  0  0
  5 17  1  0  0  0  0
  6  9  1  0  0  0  0
  6 19  1  0  0  0  0
  7 10  2  0  0  0  0
  7 20  1  0  0  0  0
  8 21  1  0  0  0  0
  8 22  1  0  0  0  0
  8 23  1  0  0  0  0
  9 11  2  0  0  0  0
  9 24  1  0  0  0  0
 10 11  1  0  0  0  0
 10 25  1  0  0  0  0
 11 26  1  0  0  0  0
M  END
