DB09091
 OpenBabel07062211533D

 56 59  0  0  1  0  0  0  0  0999 V2000
    6.9901    1.2477   -0.6298 S   0  0  0  0  0  0  0  0  0  0  0  0
    3.0626   -0.0169   -2.0724 O   0  0  0  0  0  0  0  0  0  0  0  0
   -0.4561    2.1805    1.0892 O   0  0  0  0  0  0  0  0  0  0  0  0
    4.1152    1.9849   -0.0368 O   0  0  0  0  0  0  0  0  0  0  0  0
   -6.4797   -0.3258   -1.5980 O   0  0  0  0  0  0  0  0  0  0  0  0
    1.7899    0.3375    0.0013 C   0  0  1  0  0  0  0  0  0  0  0  0
    0.9721   -0.9497   -0.2406 C   0  0  2  0  0  0  0  0  0  0  0  0
   -0.4434   -0.8999    0.3537 C   0  0  1  0  0  0  0  0  0  0  0  0
   -1.2209    0.2911   -0.2952 C   0  0  1  0  0  0  0  0  0  0  0  0
    3.1344   -0.0869   -0.6515 C   0  0  1  0  0  0  0  0  0  0  0  0
    1.0408    1.4972   -0.6865 C   0  0  0  0  0  0  0  0  0  0  0  0
   -2.7327    0.3670    0.1700 C   0  0  2  0  0  0  0  0  0  0  0  0
   -0.4261    1.6321   -0.2209 C   0  0  2  0  0  0  0  0  0  0  0  0
    1.9200   -2.0603    0.2044 C   0  0  0  0  0  0  0  0  0  0  0  0
    3.3164   -1.5608   -0.2219 C   0  0  0  0  0  0  0  0  0  0  0  0
   -1.1793   -2.2235    0.0923 C   0  0  0  0  0  0  0  0  0  0  0  0
    2.0174    0.6456    1.5072 C   0  0  0  0  0  0  0  0  0  0  0  0
   -3.3785   -1.0163    0.0122 C   0  0  0  0  0  0  0  0  0  0  0  0
   -2.6150   -2.1813    0.5929 C   0  0  0  0  0  0  0  0  0  0  0  0
   -3.4638    1.4016   -0.7346 C   0  0  0  0  0  0  0  0  0  0  0  0
   -2.9047    0.7835    1.6483 C   0  0  0  0  0  0  0  0  0  0  0  0
    4.2918    0.7921   -0.2802 C   0  0  0  0  0  0  0  0  0  0  0  0
   -4.9794    1.2969   -0.6761 C   0  0  0  0  0  0  0  0  0  0  0  0
   -4.5716   -1.2294   -0.5676 C   0  0  0  0  0  0  0  0  0  0  0  0
   -5.4174   -0.1017   -1.0218 C   0  0  0  0  0  0  0  0  0  0  0  0
    5.6437    0.1099   -0.2315 C   0  0  0  0  0  0  0  0  0  0  0  0
    0.8436   -1.0810   -1.3281 H   0  0  0  0  0  0  0  0  0  0  0  0
   -0.3892   -0.7608    1.4378 H   0  0  0  0  0  0  0  0  0  0  0  0
   -1.2552    0.0521   -1.3718 H   0  0  0  0  0  0  0  0  0  0  0  0
    1.0267    1.3430   -1.7725 H   0  0  0  0  0  0  0  0  0  0  0  0
    1.5711    2.4404   -0.5102 H   0  0  0  0  0  0  0  0  0  0  0  0
   -0.9094    2.3664   -0.8752 H   0  0  0  0  0  0  0  0  0  0  0  0
    1.6828   -3.0182   -0.2696 H   0  0  0  0  0  0  0  0  0  0  0  0
    1.8803   -2.2081    1.2897 H   0  0  0  0  0  0  0  0  0  0  0  0
    3.9895   -1.6889    0.6321 H   0  0  0  0  0  0  0  0  0  0  0  0
    3.6936   -2.1815   -1.0428 H   0  0  0  0  0  0  0  0  0  0  0  0
   -0.6586   -3.0482    0.5929 H   0  0  0  0  0  0  0  0  0  0  0  0
   -1.1737   -2.4515   -0.9818 H   0  0  0  0  0  0  0  0  0  0  0  0
    2.3903    1.6640    1.6585 H   0  0  0  0  0  0  0  0  0  0  0  0
    1.1036    0.5651    2.0996 H   0  0  0  0  0  0  0  0  0  0  0  0
    2.7395   -0.0347    1.9713 H   0  0  0  0  0  0  0  0  0  0  0  0
   -2.6208   -2.1032    1.6871 H   0  0  0  0  0  0  0  0  0  0  0  0
   -3.0996   -3.1355    0.3519 H   0  0  0  0  0  0  0  0  0  0  0  0
   -3.1557    1.2566   -1.7797 H   0  0  0  0  0  0  0  0  0  0  0  0
   -3.1726    2.4241   -0.4657 H   0  0  0  0  0  0  0  0  0  0  0  0
   -2.2191    0.2479    2.3123 H   0  0  0  0  0  0  0  0  0  0  0  0
   -2.7413    1.8558    1.7931 H   0  0  0  0  0  0  0  0  0  0  0  0
   -3.9205    0.5787    2.0084 H   0  0  0  0  0  0  0  0  0  0  0  0
    3.8514   -0.4476   -2.4434 H   0  0  0  0  0  0  0  0  0  0  0  0
   -5.4160    1.9888   -1.4048 H   0  0  0  0  0  0  0  0  0  0  0  0
   -5.3681    1.5542    0.3142 H   0  0  0  0  0  0  0  0  0  0  0  0
    0.0069    3.0350    1.0643 H   0  0  0  0  0  0  0  0  0  0  0  0
   -4.9905   -2.2248   -0.6696 H   0  0  0  0  0  0  0  0  0  0  0  0
    5.6920   -0.6950   -0.9685 H   0  0  0  0  0  0  0  0  0  0  0  0
    5.8032   -0.2983    0.7699 H   0  0  0  0  0  0  0  0  0  0  0  0
    6.7899    2.0898    0.3946 H   0  0  0  0  0  0  0  0  0  0  0  0
  1 26  1  0  0  0  0
  1 56  1  0  0  0  0
  2 10  1  0  0  0  0
  2 49  1  0  0  0  0
  3 13  1  0  0  0  0
  3 52  1  0  0  0  0
  4 22  2  0  0  0  0
  5 25  2  0  0  0  0
  6  7  1  6  0  0  0
  6 11  1  0  0  0  0
  6 17  1  0  0  0  0
  7  8  1  1  0  0  0
  7 14  1  0  0  0  0
  7 27  1  0  0  0  0
  8  9  1  6  0  0  0
  8 16  1  0  0  0  0
  8 28  1  0  0  0  0
  9 12  1  1  0  0  0
  9 29  1  0  0  0  0
 10  6  1  1  0  0  0
 10 15  1  0  0  0  0
 10 22  1  0  0  0  0
 11 13  1  0  0  0  0
 11 30  1  0  0  0  0
 11 31  1  0  0  0  0
 12 18  1  0  0  0  0
 12 20  1  0  0  0  0
 12 21  1  1  0  0  0
 13  9  1  6  0  0  0
 13 32  1  0  0  0  0
 14 15  1  0  0  0  0
 14 33  1  0  0  0  0
 14 34  1  0  0  0  0
 15 35  1  0  0  0  0
 15 36  1  0  0  0  0
 16 19  1  0  0  0  0
 16 37  1  0  0  0  0
 16 38  1  0  0  0  0
 17 39  1  0  0  0  0
 17 40  1  0  0  0  0
 17 41  1  0  0  0  0
 18 19  1  0  0  0  0
 18 24  2  0  0  0  0
 19 42  1  0  0  0  0
 19 43  1  0  0  0  0
 20 23  1  0  0  0  0
 20 44  1  0  0  0  0
 20 45  1  0  0  0  0
 21 46  1  0  0  0  0
 21 47  1  0  0  0  0
 21 48  1  0  0  0  0
 22 26  1  0  0  0  0
 23 25  1  0  0  0  0
 23 50  1  0  0  0  0
 23 51  1  0  0  0  0
 24 25  1  0  0  0  0
 24 53  1  0  0  0  0
 26 54  1  0  0  0  0
 26 55  1  0  0  0  0
M  END
