DB09282
 OpenBabel07062211533D

 31 32  0  0  0  0  0  0  0  0999 V2000
    5.2812    0.0543   -0.0178 O   0  0  0  0  0  0  0  0  0  0  0  0
   -0.5504   -0.1976    1.7594 O   0  0  0  0  0  0  0  0  0  0  0  0
   -4.4162    0.8930    0.0015 O   0  0  0  0  0  0  0  0  0  0  0  0
   -2.7322    2.0950    0.2780 O   0  0  0  0  0  0  0  0  0  0  0  0
    2.4505   -0.0768   -0.1780 N   0  0  0  0  0  0  0  0  0  0  0  0
    1.0787   -0.1285    0.3743 N   0  0  0  0  0  0  0  0  0  0  0  0
    0.8530   -0.1512    1.6668 N   0  0  0  0  0  0  0  0  0  0  0  0
   -2.4091   -0.2388    0.2877 N   0  0  0  0  0  0  0  0  0  0  0  0
    3.2441   -1.2382    0.2389 C   0  0  0  0  0  0  0  0  0  0  0  0
    3.1355    1.1663    0.1940 C   0  0  0  0  0  0  0  0  0  0  0  0
    4.6301   -1.1609   -0.3941 C   0  0  0  0  0  0  0  0  0  0  0  0
    4.5236    1.1906   -0.4386 C   0  0  0  0  0  0  0  0  0  0  0  0
   -0.0422   -0.1556   -0.4070 C   0  0  0  0  0  0  0  0  0  0  0  0
   -1.0738   -0.1990    0.4915 C   0  0  0  0  0  0  0  0  0  0  0  0
   -3.0607    0.8956    0.2077 C   0  0  0  0  0  0  0  0  0  0  0  0
   -5.0888   -0.3719   -0.1218 C   0  0  0  0  0  0  0  0  0  0  0  0
   -6.5683   -0.1258   -0.3275 C   0  0  0  0  0  0  0  0  0  0  0  0
    2.7503   -2.1628   -0.0793 H   0  0  0  0  0  0  0  0  0  0  0  0
    3.3409   -1.2641    1.3314 H   0  0  0  0  0  0  0  0  0  0  0  0
    3.2263    1.2408    1.2847 H   0  0  0  0  0  0  0  0  0  0  0  0
    2.5607    2.0301   -0.1575 H   0  0  0  0  0  0  0  0  0  0  0  0
    5.2484   -1.9924   -0.0411 H   0  0  0  0  0  0  0  0  0  0  0  0
    4.5804   -1.2253   -1.4879 H   0  0  0  0  0  0  0  0  0  0  0  0
    4.4697    1.2087   -1.5340 H   0  0  0  0  0  0  0  0  0  0  0  0
    5.0636    2.0873   -0.1186 H   0  0  0  0  0  0  0  0  0  0  0  0
   -0.0428   -0.1424   -1.4854 H   0  0  0  0  0  0  0  0  0  0  0  0
   -4.6819   -0.9171   -0.9807 H   0  0  0  0  0  0  0  0  0  0  0  0
   -4.9358   -0.9563    0.7920 H   0  0  0  0  0  0  0  0  0  0  0  0
   -7.1120   -1.0696   -0.4258 H   0  0  0  0  0  0  0  0  0  0  0  0
   -6.9856    0.4370    0.5139 H   0  0  0  0  0  0  0  0  0  0  0  0
   -6.7373    0.4754   -1.2268 H   0  0  0  0  0  0  0  0  0  0  0  0
  1 11  1  0  0  0  0
  1 12  1  0  0  0  0
  2  7  1  0  0  0  0
  2 14  1  0  0  0  0
  3 15  1  0  0  0  0
  3 16  1  0  0  0  0
  4 15  1  0  0  0  0
  5  6  1  0  0  0  0
  5  9  1  0  0  0  0
  5 10  1  0  0  0  0
  6  7  2  0  0  0  0
  6 13  1  0  0  0  0
  8 14  1  0  0  0  0
  8 15  2  0  0  0  0
  9 11  1  0  0  0  0
  9 18  1  0  0  0  0
  9 19  1  0  0  0  0
 10 12  1  0  0  0  0
 10 20  1  0  0  0  0
 10 21  1  0  0  0  0
 11 22  1  0  0  0  0
 11 23  1  0  0  0  0
 12 24  1  0  0  0  0
 12 25  1  0  0  0  0
 13 14  2  0  0  0  0
 13 26  1  0  0  0  0
 16 17  1  0  0  0  0
 16 27  1  0  0  0  0
 16 28  1  0  0  0  0
 17 29  1  0  0  0  0
 17 30  1  0  0  0  0
 17 31  1  0  0  0  0
M  END
