DB09081
 OpenBabel07062211533D

 60 60  0  0  0  0  0  0  0  0999 V2000
  -11.6008    0.3836   -0.0179 O   0  0  0  0  0  0  0  0  0  0  0  0
    7.1078    2.3988   -0.6724 O   0  0  0  0  0  0  0  0  0  0  0  0
    4.7324    1.4612   -1.6876 O   0  0  0  0  0  0  0  0  0  0  0  0
    8.4739    0.7602    1.1166 O   0  0  0  0  0  0  0  0  0  0  0  0
    7.3620   -1.6382    1.7444 O   0  0  0  0  0  0  0  0  0  0  0  0
   -1.6061   -0.7058   -0.6492 C   0  0  0  0  0  0  0  0  0  0  0  0
   -2.7672   -0.1259    0.1617 C   0  0  0  0  0  0  0  0  0  0  0  0
   -0.2566   -0.2785   -0.0669 C   0  0  0  0  0  0  0  0  0  0  0  0
   -4.1455   -0.4594   -0.4190 C   0  0  0  0  0  0  0  0  0  0  0  0
    0.9064   -0.8248   -0.8981 C   0  0  0  0  0  0  0  0  0  0  0  0
   -5.3007    0.1849    0.3511 C   0  0  0  0  0  0  0  0  0  0  0  0
    2.2560   -0.4236   -0.2941 C   0  0  0  0  0  0  0  0  0  0  0  0
   -6.6803   -0.1502   -0.2268 C   0  0  0  0  0  0  0  0  0  0  0  0
    3.4500   -0.9247   -1.1101 C   0  0  0  0  0  0  0  0  0  0  0  0
   -7.8770    0.5119    0.4629 C   0  0  0  0  0  0  0  0  0  0  0  0
    4.7702   -0.5983   -0.4963 C   0  0  0  0  0  0  0  0  0  0  0  0
   -9.2232    0.1211   -0.1441 C   0  0  0  0  0  0  0  0  0  0  0  0
    5.4448   -1.3902    0.3580 C   0  0  0  0  0  0  0  0  0  0  0  0
    5.3211    0.7333   -0.8921 C   0  0  0  0  0  0  0  0  0  0  0  0
  -10.3817    0.7715    0.6004 C   0  0  0  0  0  0  0  0  0  0  0  0
    6.7421   -0.9386    0.9470 C   0  0  0  0  0  0  0  0  0  0  0  0
    6.6093    1.1643   -0.3057 C   0  0  0  0  0  0  0  0  0  0  0  0
    5.0122   -2.7647    0.7923 C   0  0  0  0  0  0  0  0  0  0  0  0
    7.2714    0.3853    0.5516 C   0  0  0  0  0  0  0  0  0  0  0  0
    6.6423    3.4068    0.2028 C   0  0  0  0  0  0  0  0  0  0  0  0
    9.5583    0.3374    0.3136 C   0  0  0  0  0  0  0  0  0  0  0  0
   -1.6810   -0.3648   -1.6887 H   0  0  0  0  0  0  0  0  0  0  0  0
   -1.6771   -1.8000   -0.6612 H   0  0  0  0  0  0  0  0  0  0  0  0
   -2.6599    0.9649    0.2118 H   0  0  0  0  0  0  0  0  0  0  0  0
   -2.7119   -0.4966    1.1927 H   0  0  0  0  0  0  0  0  0  0  0  0
   -0.1735   -0.6387    0.9658 H   0  0  0  0  0  0  0  0  0  0  0  0
   -0.1990    0.8163   -0.0335 H   0  0  0  0  0  0  0  0  0  0  0  0
   -4.1845   -0.1279   -1.4640 H   0  0  0  0  0  0  0  0  0  0  0  0
   -4.2774   -1.5483   -0.4272 H   0  0  0  0  0  0  0  0  0  0  0  0
    0.8413   -1.9182   -0.9518 H   0  0  0  0  0  0  0  0  0  0  0  0
    0.8363   -0.4446   -1.9244 H   0  0  0  0  0  0  0  0  0  0  0  0
   -5.2642   -0.1385    1.3986 H   0  0  0  0  0  0  0  0  0  0  0  0
   -5.1697    1.2739    0.3514 H   0  0  0  0  0  0  0  0  0  0  0  0
    2.3197   -0.8181    0.7282 H   0  0  0  0  0  0  0  0  0  0  0  0
    2.3036    0.6698   -0.2122 H   0  0  0  0  0  0  0  0  0  0  0  0
   -6.8150   -1.2390   -0.1960 H   0  0  0  0  0  0  0  0  0  0  0  0
   -6.6928    0.1314   -1.2875 H   0  0  0  0  0  0  0  0  0  0  0  0
    3.3890   -0.5184   -2.1283 H   0  0  0  0  0  0  0  0  0  0  0  0
    3.3543   -2.0063   -1.2621 H   0  0  0  0  0  0  0  0  0  0  0  0
   -7.7584    1.6013    0.4143 H   0  0  0  0  0  0  0  0  0  0  0  0
   -7.8661    0.2399    1.5256 H   0  0  0  0  0  0  0  0  0  0  0  0
   -9.3454   -0.9689   -0.1255 H   0  0  0  0  0  0  0  0  0  0  0  0
   -9.2590    0.4093   -1.2020 H   0  0  0  0  0  0  0  0  0  0  0  0
  -10.4037    0.4498    1.6465 H   0  0  0  0  0  0  0  0  0  0  0  0
  -10.3055    1.8629    0.5644 H   0  0  0  0  0  0  0  0  0  0  0  0
    5.0118   -2.8354    1.8857 H   0  0  0  0  0  0  0  0  0  0  0  0
    4.0038   -3.0298    0.4673 H   0  0  0  0  0  0  0  0  0  0  0  0
    5.7004   -3.5193    0.3972 H   0  0  0  0  0  0  0  0  0  0  0  0
  -12.3202    0.8121    0.4765 H   0  0  0  0  0  0  0  0  0  0  0  0
    7.0429    4.3659   -0.1391 H   0  0  0  0  0  0  0  0  0  0  0  0
    6.9945    3.2424    1.2271 H   0  0  0  0  0  0  0  0  0  0  0  0
    5.5488    3.4757    0.1893 H   0  0  0  0  0  0  0  0  0  0  0  0
    9.5756   -0.7525    0.2030 H   0  0  0  0  0  0  0  0  0  0  0  0
    9.5351    0.8135   -0.6729 H   0  0  0  0  0  0  0  0  0  0  0  0
   10.4862    0.6388    0.8091 H   0  0  0  0  0  0  0  0  0  0  0  0
  1 20  1  0  0  0  0
  1 54  1  0  0  0  0
  2 22  1  0  0  0  0
  2 25  1  0  0  0  0
  3 19  2  0  0  0  0
  4 24  1  0  0  0  0
  4 26  1  0  0  0  0
  5 21  2  0  0  0  0
  6  7  1  0  0  0  0
  6  8  1  0  0  0  0
  6 27  1  0  0  0  0
  6 28  1  0  0  0  0
  7  9  1  0  0  0  0
  7 29  1  0  0  0  0
  7 30  1  0  0  0  0
  8 10  1  0  0  0  0
  8 31  1  0  0  0  0
  8 32  1  0  0  0  0
  9 11  1  0  0  0  0
  9 33  1  0  0  0  0
  9 34  1  0  0  0  0
 10 12  1  0  0  0  0
 10 35  1  0  0  0  0
 10 36  1  0  0  0  0
 11 13  1  0  0  0  0
 11 37  1  0  0  0  0
 11 38  1  0  0  0  0
 12 14  1  0  0  0  0
 12 39  1  0  0  0  0
 12 40  1  0  0  0  0
 13 15  1  0  0  0  0
 13 41  1  0  0  0  0
 13 42  1  0  0  0  0
 14 16  1  0  0  0  0
 14 43  1  0  0  0  0
 14 44  1  0  0  0  0
 15 17  1  0  0  0  0
 15 45  1  0  0  0  0
 15 46  1  0  0  0  0
 16 18  2  0  0  0  0
 16 19  1  0  0  0  0
 17 20  1  0  0  0  0
 17 47  1  0  0  0  0
 17 48  1  0  0  0  0
 18 21  1  0  0  0  0
 18 23  1  0  0  0  0
 19 22  1  0  0  0  0
 20 49  1  0  0  0  0
 20 50  1  0  0  0  0
 21 24  1  0  0  0  0
 22 24  2  0  0  0  0
 23 51  1  0  0  0  0
 23 52  1  0  0  0  0
 23 53  1  0  0  0  0
 25 55  1  0  0  0  0
 25 56  1  0  0  0  0
 25 57  1  0  0  0  0
 26 58  1  0  0  0  0
 26 59  1  0  0  0  0
 26 60  1  0  0  0  0
M  END
