DB09047
 OpenBabel07062211533D

 48 52  0  0  1  0  0  0  0  0999 V2000
    0.8445    3.2738    0.4664 F   0  0  0  0  0  0  0  0  0  0  0  0
    4.8669    0.1957   -1.5504 O   0  0  0  0  0  0  0  0  0  0  0  0
   -4.1868    3.1723    0.4252 O   0  0  0  0  0  0  0  0  0  0  0  0
   -6.5542    2.3946   -0.3729 O   0  0  0  0  0  0  0  0  0  0  0  0
   -7.0860    0.3084    0.3987 O   0  0  0  0  0  0  0  0  0  0  0  0
    1.6578    0.7160    0.0033 N   0  0  0  0  0  0  0  0  0  0  0  0
   -3.0364   -0.6773   -0.2674 N   0  0  0  0  0  0  0  0  0  0  0  0
    4.9600   -0.2105    1.2983 N   0  0  0  0  0  0  0  0  0  0  0  0
    0.2785   -2.3746   -0.5683 N   0  0  0  0  0  0  0  0  0  0  0  0
   -2.7896   -2.1173   -0.5277 C   0  0  0  0  0  0  0  0  0  0  0  0
    3.7329   -0.2099    0.5174 C   0  0  2  0  0  0  0  0  0  0  0  0
    3.8984    0.7333   -0.6658 C   0  0  2  0  0  0  0  0  0  0  0  0
   -2.5403   -3.0608    0.5984 C   0  0  0  0  0  0  0  0  0  0  0  0
   -3.8184   -3.1392   -0.1840 C   0  0  0  0  0  0  0  0  0  0  0  0
    2.4640    0.3291    1.1709 C   0  0  0  0  0  0  0  0  0  0  0  0
    2.4759    0.7888   -1.2155 C   0  0  0  0  0  0  0  0  0  0  0  0
    0.3104    0.9982    0.0490 C   0  0  0  0  0  0  0  0  0  0  0  0
   -2.0242    0.3077   -0.0851 C   0  0  0  0  0  0  0  0  0  0  0  0
    6.0545   -0.6728    0.4282 C   0  0  0  0  0  0  0  0  0  0  0  0
    6.1353    0.1374   -0.8753 C   0  0  0  0  0  0  0  0  0  0  0  0
   -0.6540    0.0035   -0.1355 C   0  0  0  0  0  0  0  0  0  0  0  0
   -2.3940    1.6485    0.1572 C   0  0  0  0  0  0  0  0  0  0  0  0
   -4.3661   -0.3083   -0.2051 C   0  0  0  0  0  0  0  0  0  0  0  0
   -0.0750    2.3143    0.2874 C   0  0  0  0  0  0  0  0  0  0  0  0
   -1.4267    2.6441    0.3422 C   0  0  0  0  0  0  0  0  0  0  0  0
   -4.8235    0.9299    0.0180 C   0  0  1  0  0  0  0  0  0  0  0  0
   -3.8328    2.0181    0.2189 C   0  0  0  0  0  0  0  0  0  0  0  0
   -0.1372   -1.3145   -0.3755 C   0  0  0  0  0  0  0  0  0  0  0  0
   -6.2714    1.1432    0.0470 C   0  0  0  0  0  0  0  0  0  0  0  0
   -2.3246   -2.2838   -1.4945 H   0  0  0  0  0  0  0  0  0  0  0  0
    3.5370   -1.2333    0.1620 H   0  0  0  0  0  0  0  0  0  0  0  0
    4.2001    1.7431   -0.3493 H   0  0  0  0  0  0  0  0  0  0  0  0
   -1.8349   -3.8707    0.4607 H   0  0  0  0  0  0  0  0  0  0  0  0
   -2.5923   -2.6819    1.6120 H   0  0  0  0  0  0  0  0  0  0  0  0
   -4.7091   -2.9347    0.3960 H   0  0  0  0  0  0  0  0  0  0  0  0
   -3.9383   -3.9774   -0.8623 H   0  0  0  0  0  0  0  0  0  0  0  0
    1.9735   -0.4354    1.7825 H   0  0  0  0  0  0  0  0  0  0  0  0
    2.6632    1.2102    1.7920 H   0  0  0  0  0  0  0  0  0  0  0  0
    2.3080    1.7197   -1.7678 H   0  0  0  0  0  0  0  0  0  0  0  0
    2.2647   -0.0530   -1.8844 H   0  0  0  0  0  0  0  0  0  0  0  0
    4.8665   -0.8392    2.0951 H   0  0  0  0  0  0  0  0  0  0  0  0
    5.8945   -1.7314    0.1880 H   0  0  0  0  0  0  0  0  0  0  0  0
    7.0045   -0.5993    0.9675 H   0  0  0  0  0  0  0  0  0  0  0  0
    6.4805    1.1602   -0.6801 H   0  0  0  0  0  0  0  0  0  0  0  0
    6.8526   -0.3280   -1.5587 H   0  0  0  0  0  0  0  0  0  0  0  0
   -5.0835   -1.0902   -0.4186 H   0  0  0  0  0  0  0  0  0  0  0  0
   -1.7070    3.6769    0.5294 H   0  0  0  0  0  0  0  0  0  0  0  0
   -7.5182    2.5762   -0.3675 H   0  0  0  0  0  0  0  0  0  0  0  0
  1 24  1  0  0  0  0
  2 12  1  0  0  0  0
  2 20  1  0  0  0  0
  3 27  2  0  0  0  0
  4 29  1  0  0  0  0
  4 48  1  0  0  0  0
  5 29  2  0  0  0  0
  6 15  1  0  0  0  0
  6 16  1  0  0  0  0
  6 17  1  0  0  0  0
  7 10  1  0  0  0  0
  7 18  1  0  0  0  0
  7 23  2  0  0  0  0
  8 11  1  0  0  0  0
  8 19  1  0  0  0  0
  8 41  1  0  0  0  0
  9 28  3  0  0  0  0
 10 13  1  0  0  0  0
 10 14  1  0  0  0  0
 10 30  1  0  0  0  0
 11 12  1  6  0  0  0
 11 15  1  0  0  0  0
 11 31  1  0  0  0  0
 12 16  1  0  0  0  0
 12 32  1  1  0  0  0
 13 14  1  0  0  0  0
 13 33  1  0  0  0  0
 13 34  1  0  0  0  0
 14 35  1  0  0  0  0
 14 36  1  0  0  0  0
 15 37  1  0  0  0  0
 15 38  1  0  0  0  0
 16 39  1  0  0  0  0
 16 40  1  0  0  0  0
 17 21  2  0  0  0  0
 17 24  1  0  0  0  0
 18 21  1  0  0  0  0
 18 22  2  0  0  0  0
 19 20  1  0  0  0  0
 19 42  1  0  0  0  0
 19 43  1  0  0  0  0
 20 44  1  0  0  0  0
 20 45  1  0  0  0  0
 21 28  1  0  0  0  0
 22 25  1  0  0  0  0
 22 27  1  0  0  0  0
 23 26  1  0  0  0  0
 23 46  1  0  0  0  0
 24 25  2  0  0  0  0
 25 47  1  0  0  0  0
 26 27  1  0  0  0  0
 26 29  1  6  0  0  0
M  END
