DB09053
 OpenBabel07062211533D

 57 61  0  0  1  0  0  0  0  0999 V2000
   -7.5257    1.2696    0.4877 O   0  0  0  0  0  0  0  0  0  0  0  0
    5.1000    1.5514    1.5377 O   0  0  0  0  0  0  0  0  0  0  0  0
   -5.2289    1.1812    0.1366 N   0  0  0  0  0  0  0  0  0  0  0  0
   -1.8847   -0.5176   -0.5896 N   0  0  0  0  0  0  0  0  0  0  0  0
   -0.8952    0.3051   -0.1950 N   0  0  0  0  0  0  0  0  0  0  0  0
   -2.2569   -2.8563   -1.0946 N   0  0  0  0  0  0  0  0  0  0  0  0
   -0.2239   -4.1746   -0.8121 N   0  0  0  0  0  0  0  0  0  0  0  0
    1.8490   -3.2161   -0.1183 N   0  0  0  0  0  0  0  0  0  0  0  0
   -3.2699    0.0457   -0.8408 C   0  0  2  0  0  0  0  0  0  0  0  0
   -3.2708    1.0744   -1.9896 C   0  0  0  0  0  0  0  0  0  0  0  0
   -3.8845    0.6608    0.4284 C   0  0  0  0  0  0  0  0  0  0  0  0
   -4.6708    1.6533   -2.2093 C   0  0  0  0  0  0  0  0  0  0  0  0
   -5.2561    2.2046   -0.9108 C   0  0  0  0  0  0  0  0  0  0  0  0
   -1.4940   -1.8173   -0.7193 C   0  0  0  0  0  0  0  0  0  0  0  0
   -0.1514   -1.8476   -0.3851 C   0  0  0  0  0  0  0  0  0  0  0  0
   -6.4170    0.8028    0.7545 C   0  0  0  0  0  0  0  0  0  0  0  0
    0.1576   -0.5108   -0.0721 C   0  0  0  0  0  0  0  0  0  0  0  0
    0.4864   -3.0825   -0.4407 C   0  0  0  0  0  0  0  0  0  0  0  0
    1.4311    0.0210    0.3431 C   0  0  0  0  0  0  0  0  0  0  0  0
   -6.3475   -0.2377    1.7996 C   0  0  0  0  0  0  0  0  0  0  0  0
   -1.5327   -3.9961   -1.1118 C   0  0  0  0  0  0  0  0  0  0  0  0
    2.3388    0.4811   -0.6109 C   0  0  0  0  0  0  0  0  0  0  0  0
    1.7559    0.0762    1.6985 C   0  0  0  0  0  0  0  0  0  0  0  0
   -7.2392   -0.2147    2.7925 C   0  0  0  0  0  0  0  0  0  0  0  0
    3.5712    0.9963   -0.2096 C   0  0  0  0  0  0  0  0  0  0  0  0
    2.9886    0.5915    2.0999 C   0  0  0  0  0  0  0  0  0  0  0  0
    3.8961    1.0515    1.1458 C   0  0  0  0  0  0  0  0  0  0  0  0
    6.2249    1.1392    0.8436 C   0  0  0  0  0  0  0  0  0  0  0  0
    6.3979   -0.2098    0.5333 C   0  0  0  0  0  0  0  0  0  0  0  0
    7.1857    2.0729    0.4549 C   0  0  0  0  0  0  0  0  0  0  0  0
    7.5315   -0.6251   -0.1653 C   0  0  0  0  0  0  0  0  0  0  0  0
    8.3193    1.6575   -0.2438 C   0  0  0  0  0  0  0  0  0  0  0  0
    8.4923    0.3085   -0.5538 C   0  0  0  0  0  0  0  0  0  0  0  0
   -3.8766   -0.8171   -1.1452 H   0  0  0  0  0  0  0  0  0  0  0  0
   -2.9147    0.6048   -2.9142 H   0  0  0  0  0  0  0  0  0  0  0  0
   -2.5746    1.8924   -1.7650 H   0  0  0  0  0  0  0  0  0  0  0  0
   -3.8856   -0.0691    1.2393 H   0  0  0  0  0  0  0  0  0  0  0  0
   -3.2823    1.5080    0.7811 H   0  0  0  0  0  0  0  0  0  0  0  0
   -4.6313    2.4444   -2.9661 H   0  0  0  0  0  0  0  0  0  0  0  0
   -5.3264    0.8640   -2.5977 H   0  0  0  0  0  0  0  0  0  0  0  0
   -6.2765    2.5587   -1.0875 H   0  0  0  0  0  0  0  0  0  0  0  0
   -4.6687    3.0592   -0.5548 H   0  0  0  0  0  0  0  0  0  0  0  0
   -5.6197   -1.0356    1.7412 H   0  0  0  0  0  0  0  0  0  0  0  0
   -2.0714   -4.8908   -1.4050 H   0  0  0  0  0  0  0  0  0  0  0  0
    2.0988    0.4490   -1.6710 H   0  0  0  0  0  0  0  0  0  0  0  0
    1.0598   -0.2793    2.4547 H   0  0  0  0  0  0  0  0  0  0  0  0
    2.2736   -4.1322   -0.1719 H   0  0  0  0  0  0  0  0  0  0  0  0
    2.4038   -2.4206    0.1613 H   0  0  0  0  0  0  0  0  0  0  0  0
   -7.9970    0.5556    2.8857 H   0  0  0  0  0  0  0  0  0  0  0  0
   -7.2185   -0.9856    3.5559 H   0  0  0  0  0  0  0  0  0  0  0  0
    4.2493    1.3683   -0.9732 H   0  0  0  0  0  0  0  0  0  0  0  0
    3.2367    0.6308    3.1571 H   0  0  0  0  0  0  0  0  0  0  0  0
    5.6764   -0.9613    0.8429 H   0  0  0  0  0  0  0  0  0  0  0  0
    7.0560    3.1248    0.6936 H   0  0  0  0  0  0  0  0  0  0  0  0
    7.6688   -1.6760   -0.4025 H   0  0  0  0  0  0  0  0  0  0  0  0
    9.0676    2.3843   -0.5461 H   0  0  0  0  0  0  0  0  0  0  0  0
    9.3755   -0.0151   -1.0966 H   0  0  0  0  0  0  0  0  0  0  0  0
  1 16  2  0  0  0  0
  2 27  1  0  0  0  0
  2 28  1  0  0  0  0
  3 11  1  0  0  0  0
  3 13  1  0  0  0  0
  3 16  1  0  0  0  0
  4  5  1  0  0  0  0
  4  9  1  0  0  0  0
  4 14  2  0  0  0  0
  5 17  1  0  0  0  0
  6 14  1  0  0  0  0
  6 21  2  0  0  0  0
  7 18  2  0  0  0  0
  7 21  1  0  0  0  0
  8 18  1  0  0  0  0
  8 47  1  0  0  0  0
  8 48  1  0  0  0  0
  9 10  1  0  0  0  0
  9 11  1  0  0  0  0
  9 34  1  6  0  0  0
 10 12  1  0  0  0  0
 10 35  1  0  0  0  0
 10 36  1  0  0  0  0
 11 37  1  0  0  0  0
 11 38  1  0  0  0  0
 12 13  1  0  0  0  0
 12 39  1  0  0  0  0
 12 40  1  0  0  0  0
 13 41  1  0  0  0  0
 13 42  1  0  0  0  0
 14 15  1  0  0  0  0
 15 17  2  0  0  0  0
 15 18  1  0  0  0  0
 16 20  1  0  0  0  0
 17 19  1  0  0  0  0
 19 22  2  0  0  0  0
 19 23  1  0  0  0  0
 20 24  2  0  0  0  0
 20 43  1  0  0  0  0
 21 44  1  0  0  0  0
 22 25  1  0  0  0  0
 22 45  1  0  0  0  0
 23 26  2  0  0  0  0
 23 46  1  0  0  0  0
 24 49  1  0  0  0  0
 24 50  1  0  0  0  0
 25 27  2  0  0  0  0
 25 51  1  0  0  0  0
 26 27  1  0  0  0  0
 26 52  1  0  0  0  0
 28 29  2  0  0  0  0
 28 30  1  0  0  0  0
 29 31  1  0  0  0  0
 29 53  1  0  0  0  0
 30 32  2  0  0  0  0
 30 54  1  0  0  0  0
 31 33  2  0  0  0  0
 31 55  1  0  0  0  0
 32 33  1  0  0  0  0
 32 56  1  0  0  0  0
 33 57  1  0  0  0  0
M  END
