DB09085
 OpenBabel07062211533D

 43 43  0  0  0  0  0  0  0  0999 V2000
   -2.8866    0.3150    0.2259 O   0  0  0  0  0  0  0  0  0  0  0  0
   -2.2759    2.5273    0.4037 O   0  0  0  0  0  0  0  0  0  0  0  0
    3.3252   -0.6037   -0.0977 N   0  0  0  0  0  0  0  0  0  0  0  0
   -6.5283   -0.2607    0.3317 N   0  0  0  0  0  0  0  0  0  0  0  0
    5.7692   -0.5906   -0.1253 C   0  0  0  0  0  0  0  0  0  0  0  0
    4.4926    0.2440   -0.0654 C   0  0  0  0  0  0  0  0  0  0  0  0
    7.0369    0.2640   -0.0466 C   0  0  0  0  0  0  0  0  0  0  0  0
    2.0262   -0.1286   -0.0057 C   0  0  0  0  0  0  0  0  0  0  0  0
   -5.1126   -0.5821    0.2301 C   0  0  0  0  0  0  0  0  0  0  0  0
   -4.2684    0.6795    0.3124 C   0  0  0  0  0  0  0  0  0  0  0  0
    8.2891   -0.5994   -0.0423 C   0  0  0  0  0  0  0  0  0  0  0  0
   -0.6110    0.8348    0.1839 C   0  0  0  0  0  0  0  0  0  0  0  0
    0.9309   -1.0113   -0.0424 C   0  0  0  0  0  0  0  0  0  0  0  0
    1.7686    1.2483    0.1282 C   0  0  0  0  0  0  0  0  0  0  0  0
   -0.3763   -0.5338    0.0516 C   0  0  0  0  0  0  0  0  0  0  0  0
    0.4614    1.7259    0.2223 C   0  0  0  0  0  0  0  0  0  0  0  0
   -1.9739    1.3326    0.2833 C   0  0  0  0  0  0  0  0  0  0  0  0
   -7.3404   -1.4793    0.2946 C   0  0  0  0  0  0  0  0  0  0  0  0
   -6.9319    0.6484   -0.7439 C   0  0  0  0  0  0  0  0  0  0  0  0
    5.7671   -1.3142    0.7002 H   0  0  0  0  0  0  0  0  0  0  0  0
    5.7801   -1.1780   -1.0524 H   0  0  0  0  0  0  0  0  0  0  0  0
    4.5038    0.8330    0.8597 H   0  0  0  0  0  0  0  0  0  0  0  0
    4.4789    0.9381   -0.9142 H   0  0  0  0  0  0  0  0  0  0  0  0
    7.0729    0.9530   -0.8982 H   0  0  0  0  0  0  0  0  0  0  0  0
    7.0186    0.8731    0.8645 H   0  0  0  0  0  0  0  0  0  0  0  0
    3.4515   -1.6044   -0.2031 H   0  0  0  0  0  0  0  0  0  0  0  0
   -4.8147   -1.2499    1.0491 H   0  0  0  0  0  0  0  0  0  0  0  0
   -4.8794   -1.1218   -0.6978 H   0  0  0  0  0  0  0  0  0  0  0  0
   -4.4435    1.1999    1.2616 H   0  0  0  0  0  0  0  0  0  0  0  0
   -4.4672    1.3617   -0.5196 H   0  0  0  0  0  0  0  0  0  0  0  0
    8.2971   -1.2753    0.8186 H   0  0  0  0  0  0  0  0  0  0  0  0
    9.1828    0.0300    0.0116 H   0  0  0  0  0  0  0  0  0  0  0  0
    8.3524   -1.2024   -0.9537 H   0  0  0  0  0  0  0  0  0  0  0  0
    1.0966   -2.0816   -0.1449 H   0  0  0  0  0  0  0  0  0  0  0  0
    2.5733    1.9780    0.1606 H   0  0  0  0  0  0  0  0  0  0  0  0
   -1.1798   -1.2642    0.0176 H   0  0  0  0  0  0  0  0  0  0  0  0
    0.3001    2.7958    0.3248 H   0  0  0  0  0  0  0  0  0  0  0  0
   -7.0631   -2.1511    1.1146 H   0  0  0  0  0  0  0  0  0  0  0  0
   -7.2272   -2.0226   -0.6506 H   0  0  0  0  0  0  0  0  0  0  0  0
   -8.4010   -1.2405    0.4320 H   0  0  0  0  0  0  0  0  0  0  0  0
   -6.5435    1.6599   -0.5909 H   0  0  0  0  0  0  0  0  0  0  0  0
   -8.0226    0.7654   -0.7541 H   0  0  0  0  0  0  0  0  0  0  0  0
   -6.6280    0.2879   -1.7335 H   0  0  0  0  0  0  0  0  0  0  0  0
  1 10  1  0  0  0  0
  1 17  1  0  0  0  0
  2 17  2  0  0  0  0
  3  6  1  0  0  0  0
  3  8  1  0  0  0  0
  3 26  1  0  0  0  0
  4  9  1  0  0  0  0
  4 18  1  0  0  0  0
  4 19  1  0  0  0  0
  5  6  1  0  0  0  0
  5  7  1  0  0  0  0
  5 20  1  0  0  0  0
  5 21  1  0  0  0  0
  6 22  1  0  0  0  0
  6 23  1  0  0  0  0
  7 11  1  0  0  0  0
  7 24  1  0  0  0  0
  7 25  1  0  0  0  0
  8 13  2  0  0  0  0
  8 14  1  0  0  0  0
  9 10  1  0  0  0  0
  9 27  1  0  0  0  0
  9 28  1  0  0  0  0
 10 29  1  0  0  0  0
 10 30  1  0  0  0  0
 11 31  1  0  0  0  0
 11 32  1  0  0  0  0
 11 33  1  0  0  0  0
 12 15  2  0  0  0  0
 12 16  1  0  0  0  0
 12 17  1  0  0  0  0
 13 15  1  0  0  0  0
 13 34  1  0  0  0  0
 14 16  2  0  0  0  0
 14 35  1  0  0  0  0
 15 36  1  0  0  0  0
 16 37  1  0  0  0  0
 18 38  1  0  0  0  0
 18 39  1  0  0  0  0
 18 40  1  0  0  0  0
 19 41  1  0  0  0  0
 19 42  1  0  0  0  0
 19 43  1  0  0  0  0
M  END
