DB09502
 OpenBabel07062211533D

 23 22  0  0  1  0  0  0  0  0999 V2000
   -2.2834    1.7172   -0.2821 F   0  0  0  0  0  0  0  0  0  0  0  0
    0.2316    1.6274   -0.5015 O   0  0  0  0  0  0  0  0  0  0  0  0
   -1.2375   -0.6321   -1.4237 O   0  0  0  0  0  0  0  0  0  0  0  0
    1.4253   -1.6931    0.5120 O   0  0  0  0  0  0  0  0  0  0  0  0
    3.8088   -0.6344   -0.4889 O   0  0  0  0  0  0  0  0  0  0  0  0
   -4.4864    0.2796   -0.6960 O   0  0  0  0  0  0  0  0  0  0  0  0
    0.2280    0.3873    0.2026 C   0  0  1  0  0  0  0  0  0  0  0  0
   -1.1263   -0.3041   -0.0392 C   0  0  1  0  0  0  0  0  0  0  0  0
    1.4273   -0.4758   -0.2370 C   0  0  1  0  0  0  0  0  0  0  0  0
   -2.3435    0.5258    0.3821 C   0  0  2  0  0  0  0  0  0  0  0  0
    2.7699    0.2204   -0.0213 C   0  0  0  0  0  0  0  0  0  0  0  0
   -3.6542   -0.1614    0.0906 C   0  0  0  0  0  0  0  0  0  0  0  0
    0.3043    0.6089    1.2749 H   0  0  0  0  0  0  0  0  0  0  0  0
   -1.1450   -1.2531    0.5107 H   0  0  0  0  0  0  0  0  0  0  0  0
    1.3450   -0.7465   -1.2957 H   0  0  0  0  0  0  0  0  0  0  0  0
   -2.3082    0.7481    1.4532 H   0  0  0  0  0  0  0  0  0  0  0  0
    2.8329    1.1601   -0.5769 H   0  0  0  0  0  0  0  0  0  0  0  0
    2.9478    0.4119    1.0418 H   0  0  0  0  0  0  0  0  0  0  0  0
    0.9435    2.1760   -0.1317 H   0  0  0  0  0  0  0  0  0  0  0  0
   -1.9992   -1.2263   -1.5312 H   0  0  0  0  0  0  0  0  0  0  0  0
    1.5031   -1.4635    1.4538 H   0  0  0  0  0  0  0  0  0  0  0  0
   -3.8334   -1.1018    0.6393 H   0  0  0  0  0  0  0  0  0  0  0  0
    4.6497   -0.1705   -0.3357 H   0  0  0  0  0  0  0  0  0  0  0  0
  1 10  1  0  0  0  0
  2  7  1  0  0  0  0
  2 19  1  0  0  0  0
  3  8  1  0  0  0  0
  3 20  1  0  0  0  0
  4  9  1  0  0  0  0
  4 21  1  0  0  0  0
  5 11  1  0  0  0  0
  5 23  1  0  0  0  0
  6 12  2  0  0  0  0
  7  8  1  0  0  0  0
  7  9  1  0  0  0  0
  7 13  1  1  0  0  0
  8 10  1  0  0  0  0
  8 14  1  1  0  0  0
  9 11  1  0  0  0  0
  9 15  1  6  0  0  0
 10 12  1  0  0  0  0
 10 16  1  1  0  0  0
 11 17  1  0  0  0  0
 11 18  1  0  0  0  0
 12 22  1  0  0  0  0
M  END
