DB09115
 OpenBabel07062211533D

 18 19  0  0  0  0  0  0  0  0999 V2000
   -0.1800   -3.7155   -0.0001 I   0  0  0  0  0  0  0  0  0  0  0  0
   -4.2989    0.5461    0.0009 I   0  0  0  0  0  0  0  0  0  0  0  0
   -1.6266    2.3732   -0.0003 O   0  0  0  0  0  0  0  0  0  0  0  0
    1.0058    1.7034   -0.0000 N   0  0  0  0  0  0  0  0  0  0  0  0
    0.4362   -0.6381   -0.0002 C   0  0  0  0  0  0  0  0  0  0  0  0
    0.0792    0.7265   -0.0002 C   0  0  0  0  0  0  0  0  0  0  0  0
   -1.2752    1.0491   -0.0000 C   0  0  0  0  0  0  0  0  0  0  0  0
   -0.5576   -1.6317   -0.0000 C   0  0  0  0  0  0  0  0  0  0  0  0
    1.7993   -0.9635   -0.0000 C   0  0  0  0  0  0  0  0  0  0  0  0
   -2.2634    0.0616   -0.0002 C   0  0  0  0  0  0  0  0  0  0  0  0
   -1.9045   -1.2806   -0.0001 C   0  0  0  0  0  0  0  0  0  0  0  0
    2.7564    0.0409    0.0000 C   0  0  0  0  0  0  0  0  0  0  0  0
    2.3107    1.3470    0.0001 C   0  0  0  0  0  0  0  0  0  0  0  0
    2.1639   -1.9850    0.0000 H   0  0  0  0  0  0  0  0  0  0  0  0
   -2.6758   -2.0477   -0.0000 H   0  0  0  0  0  0  0  0  0  0  0  0
    3.8149   -0.1920    0.0002 H   0  0  0  0  0  0  0  0  0  0  0  0
    3.0130    2.1741    0.0003 H   0  0  0  0  0  0  0  0  0  0  0  0
   -2.5975    2.4323   -0.0003 H   0  0  0  0  0  0  0  0  0  0  0  0
  1  8  1  0  0  0  0
  2 10  1  0  0  0  0
  3  7  1  0  0  0  0
  3 18  1  0  0  0  0
  4  6  2  0  0  0  0
  4 13  1  0  0  0  0
  5  6  1  0  0  0  0
  5  8  1  0  0  0  0
  5  9  2  0  0  0  0
  6  7  1  0  0  0  0
  7 10  2  0  0  0  0
  8 11  2  0  0  0  0
  9 12  1  0  0  0  0
  9 14  1  0  0  0  0
 10 11  1  0  0  0  0
 11 15  1  0  0  0  0
 12 13  2  0  0  0  0
 12 16  1  0  0  0  0
 13 17  1  0  0  0  0
M  END
