DB09060
 OpenBabel07062211533D

 28 29  0  0  1  0  0  0  0  0999 V2000
   -3.7877   -0.7231    0.1374 S   0  0  0  0  0  0  0  0  0  0  0  0
   -2.5162    0.2324   -0.2726 O   0  0  0  0  0  0  0  0  0  0  0  0
   -0.7866   -1.7854   -1.4970 O   0  0  0  0  0  0  0  0  0  0  0  0
    3.6033    1.0218    0.0369 O   0  0  0  0  0  0  0  0  0  0  0  0
   -5.0799    0.1143   -0.3987 O   0  0  0  0  0  0  0  0  0  0  0  0
   -3.8681   -0.7739    1.5854 O   0  0  0  0  0  0  0  0  0  0  0  0
   -3.7034   -1.9444   -0.6419 O   0  0  0  0  0  0  0  0  0  0  0  0
    0.8296   -0.9294    0.0789 N   0  0  0  0  0  0  0  0  0  0  0  0
   -1.3129   -0.2481    0.2225 N   0  0  0  0  0  0  0  0  0  0  0  0
    3.6508   -1.2759   -0.0735 N   0  0  0  0  0  0  0  0  0  0  0  0
   -0.5004    0.6176    1.0642 C   0  0  1  0  0  0  0  0  0  0  0  0
    0.5948   -0.3749    1.4113 C   0  0  0  0  0  0  0  0  0  0  0  0
    0.1686    1.7642    0.2620 C   0  0  0  0  0  0  0  0  0  0  0  0
    1.6688   -0.1117   -0.7878 C   0  0  1  0  0  0  0  0  0  0  0  0
    1.0272    1.2898   -0.9493 C   0  0  0  0  0  0  0  0  0  0  0  0
   -0.5036   -1.1409   -0.4985 C   0  0  0  0  0  0  0  0  0  0  0  0
    3.0575   -0.0457   -0.2311 C   0  0  0  0  0  0  0  0  0  0  0  0
   -1.0671    0.9773    1.9266 H   0  0  0  0  0  0  0  0  0  0  0  0
    1.4916    0.0596    1.8607 H   0  0  0  0  0  0  0  0  0  0  0  0
    0.2210   -1.1809    2.0550 H   0  0  0  0  0  0  0  0  0  0  0  0
    0.8186    2.3278    0.9431 H   0  0  0  0  0  0  0  0  0  0  0  0
   -0.5955    2.4628   -0.0990 H   0  0  0  0  0  0  0  0  0  0  0  0
    1.7270   -0.5895   -1.7744 H   0  0  0  0  0  0  0  0  0  0  0  0
    0.3429    1.2336   -1.8083 H   0  0  0  0  0  0  0  0  0  0  0  0
    1.7586    2.0604   -1.2175 H   0  0  0  0  0  0  0  0  0  0  0  0
    4.5941   -1.3589    0.2907 H   0  0  0  0  0  0  0  0  0  0  0  0
    3.1724   -2.1402   -0.3065 H   0  0  0  0  0  0  0  0  0  0  0  0
   -5.0055    0.4615   -1.3186 H   0  0  0  0  0  0  0  0  0  0  0  0
  1  2  1  0  0  0  0
  1  5  1  0  0  0  0
  1  6  2  0  0  0  0
  1  7  2  0  0  0  0
  2  9  1  0  0  0  0
  3 16  2  0  0  0  0
  4 17  2  0  0  0  0
  5 28  1  0  0  0  0
  8 12  1  0  0  0  0
  8 14  1  0  0  0  0
  8 16  1  0  0  0  0
  9 11  1  0  0  0  0
  9 16  1  0  0  0  0
 10 17  1  0  0  0  0
 10 26  1  0  0  0  0
 10 27  1  0  0  0  0
 11 12  1  0  0  0  0
 11 13  1  0  0  0  0
 11 18  1  1  0  0  0
 12 19  1  0  0  0  0
 12 20  1  0  0  0  0
 13 15  1  0  0  0  0
 13 21  1  0  0  0  0
 13 22  1  0  0  0  0
 14 15  1  0  0  0  0
 14 17  1  0  0  0  0
 14 23  1  6  0  0  0
 15 24  1  0  0  0  0
 15 25  1  0  0  0  0
M  END
