DB09319
 OpenBabel07062211533D

 61 65  0  0  1  0  0  0  0  0999 V2000
    3.4989    0.3228   -1.0074 S   0  0  0  0  0  0  0  0  0  0  0  0
    4.1994   -3.1395    1.6257 O   0  0  0  0  0  0  0  0  0  0  0  0
    7.9031   -0.3163    0.6352 O   0  0  0  0  0  0  0  0  0  0  0  0
    7.3724   -2.3028   -0.3489 O   0  0  0  0  0  0  0  0  0  0  0  0
    0.3482   -1.3879   -1.5703 O   0  0  0  0  0  0  0  0  0  0  0  0
   -2.8349   -0.3318    1.0656 O   0  0  0  0  0  0  0  0  0  0  0  0
   -2.2939   -1.4929   -0.8879 O   0  0  0  0  0  0  0  0  0  0  0  0
    4.7681   -1.8031   -0.2347 N   0  0  0  0  0  0  0  0  0  0  0  0
    1.6406   -1.7262    0.3247 N   0  0  0  0  0  0  0  0  0  0  0  0
    3.7021   -1.4866   -1.1897 C   0  0  1  0  0  0  0  0  0  0  0  0
    5.3041    0.5227   -0.5942 C   0  0  0  0  0  0  0  0  0  0  0  0
    5.6298   -0.7376    0.2359 C   0  0  2  0  0  0  0  0  0  0  0  0
    2.7742   -2.3747   -0.3493 C   0  0  1  0  0  0  0  0  0  0  0  0
    3.9979   -2.6015    0.5607 C   0  0  0  0  0  0  0  0  0  0  0  0
    6.0808    0.6349   -1.9131 C   0  0  0  0  0  0  0  0  0  0  0  0
    5.4870    1.7973    0.2320 C   0  0  0  0  0  0  0  0  0  0  0  0
    7.0382   -1.2283    0.1276 C   0  0  0  0  0  0  0  0  0  0  0  0
    0.5057   -1.2809   -0.3551 C   0  0  0  0  0  0  0  0  0  0  0  0
   -0.5302   -0.6207    0.5547 C   0  0  1  0  0  0  0  0  0  0  0  0
   -0.2198    0.8606    0.6844 C   0  0  0  0  0  0  0  0  0  0  0  0
   -1.9675   -0.8743    0.1174 C   0  0  0  0  0  0  0  0  0  0  0  0
   -8.4463    0.5307   -0.7398 C   0  0  0  0  0  0  0  0  0  0  0  0
   -7.0699    1.0788   -1.1457 C   0  0  0  0  0  0  0  0  0  0  0  0
   -8.2408   -0.9430   -0.3580 C   0  0  0  0  0  0  0  0  0  0  0  0
   -6.1627    0.2271   -0.3153 C   0  0  0  0  0  0  0  0  0  0  0  0
   -6.8274   -0.9207    0.1319 C   0  0  0  0  0  0  0  0  0  0  0  0
   -4.8271    0.4402   -0.0190 C   0  0  0  0  0  0  0  0  0  0  0  0
   -4.1596   -0.5151    0.7503 C   0  0  0  0  0  0  0  0  0  0  0  0
    0.6138    1.2839    1.7014 C   0  0  0  0  0  0  0  0  0  0  0  0
   -0.7794    1.7441   -0.2182 C   0  0  0  0  0  0  0  0  0  0  0  0
   -6.1702   -1.8792    0.8845 C   0  0  0  0  0  0  0  0  0  0  0  0
   -4.8262   -1.6666    1.1988 C   0  0  0  0  0  0  0  0  0  0  0  0
    0.8991    2.6441    1.8204 C   0  0  0  0  0  0  0  0  0  0  0  0
   -0.4940    3.1042   -0.0991 C   0  0  0  0  0  0  0  0  0  0  0  0
    0.3452    3.5541    0.9203 C   0  0  0  0  0  0  0  0  0  0  0  0
    3.9189   -1.8419   -2.2011 H   0  0  0  0  0  0  0  0  0  0  0  0
    5.4079   -0.5894    1.3014 H   0  0  0  0  0  0  0  0  0  0  0  0
    2.4620   -3.2961   -0.8554 H   0  0  0  0  0  0  0  0  0  0  0  0
    5.7174    1.4717   -2.5216 H   0  0  0  0  0  0  0  0  0  0  0  0
    7.1456    0.8184   -1.7321 H   0  0  0  0  0  0  0  0  0  0  0  0
    6.0053   -0.2759   -2.5176 H   0  0  0  0  0  0  0  0  0  0  0  0
    4.9127    1.7637    1.1653 H   0  0  0  0  0  0  0  0  0  0  0  0
    6.5381    1.9473    0.5009 H   0  0  0  0  0  0  0  0  0  0  0  0
    5.1668    2.6860   -0.3247 H   0  0  0  0  0  0  0  0  0  0  0  0
    1.6744   -1.5882    1.3320 H   0  0  0  0  0  0  0  0  0  0  0  0
   -0.4542   -1.0993    1.5422 H   0  0  0  0  0  0  0  0  0  0  0  0
    8.8339   -0.6196    0.5725 H   0  0  0  0  0  0  0  0  0  0  0  0
   -8.8066    1.0822    0.1400 H   0  0  0  0  0  0  0  0  0  0  0  0
   -9.1955    0.6577   -1.5275 H   0  0  0  0  0  0  0  0  0  0  0  0
   -6.9788    2.1428   -0.9101 H   0  0  0  0  0  0  0  0  0  0  0  0
   -6.8751    0.9107   -2.2098 H   0  0  0  0  0  0  0  0  0  0  0  0
   -8.3259   -1.5943   -1.2340 H   0  0  0  0  0  0  0  0  0  0  0  0
   -8.9480   -1.2573    0.4146 H   0  0  0  0  0  0  0  0  0  0  0  0
   -4.3125    1.3262   -0.3767 H   0  0  0  0  0  0  0  0  0  0  0  0
    1.0500    0.5838    2.4074 H   0  0  0  0  0  0  0  0  0  0  0  0
   -1.4214    1.4160   -1.0297 H   0  0  0  0  0  0  0  0  0  0  0  0
   -6.6801   -2.7748    1.2225 H   0  0  0  0  0  0  0  0  0  0  0  0
   -4.2938   -2.4057    1.7923 H   0  0  0  0  0  0  0  0  0  0  0  0
    1.5534    2.9942    2.6133 H   0  0  0  0  0  0  0  0  0  0  0  0
   -0.9219    3.8127   -0.8023 H   0  0  0  0  0  0  0  0  0  0  0  0
    0.5686    4.6130    1.0121 H   0  0  0  0  0  0  0  0  0  0  0  0
  1 10  1  0  0  0  0
  1 11  1  0  0  0  0
  2 14  2  0  0  0  0
  3 17  1  0  0  0  0
  3 47  1  0  0  0  0
  4 17  2  0  0  0  0
  5 18  2  0  0  0  0
  6 21  1  0  0  0  0
  6 28  1  0  0  0  0
  7 21  2  0  0  0  0
  8 10  1  0  0  0  0
  8 12  1  0  0  0  0
  8 14  1  0  0  0  0
  9 13  1  0  0  0  0
  9 18  1  0  0  0  0
  9 45  1  0  0  0  0
 10 13  1  1  0  0  0
 10 36  1  0  0  0  0
 11 12  1  0  0  0  0
 11 15  1  0  0  0  0
 11 16  1  0  0  0  0
 12 17  1  0  0  0  0
 12 37  1  1  0  0  0
 13 14  1  0  0  0  0
 13 38  1  6  0  0  0
 15 39  1  0  0  0  0
 15 40  1  0  0  0  0
 15 41  1  0  0  0  0
 16 42  1  0  0  0  0
 16 43  1  0  0  0  0
 16 44  1  0  0  0  0
 18 19  1  0  0  0  0
 19 20  1  0  0  0  0
 19 21  1  0  0  0  0
 19 46  1  1  0  0  0
 20 29  2  0  0  0  0
 20 30  1  0  0  0  0
 22 23  1  0  0  0  0
 22 24  1  0  0  0  0
 22 48  1  0  0  0  0
 22 49  1  0  0  0  0
 23 25  1  0  0  0  0
 23 50  1  0  0  0  0
 23 51  1  0  0  0  0
 24 26  1  0  0  0  0
 24 52  1  0  0  0  0
 24 53  1  0  0  0  0
 25 26  2  0  0  0  0
 25 27  1  0  0  0  0
 26 31  1  0  0  0  0
 27 28  2  0  0  0  0
 27 54  1  0  0  0  0
 28 32  1  0  0  0  0
 29 33  1  0  0  0  0
 29 55  1  0  0  0  0
 30 34  2  0  0  0  0
 30 56  1  0  0  0  0
 31 32  2  0  0  0  0
 31 57  1  0  0  0  0
 32 58  1  0  0  0  0
 33 35  2  0  0  0  0
 33 59  1  0  0  0  0
 34 35  1  0  0  0  0
 34 60  1  0  0  0  0
 35 61  1  0  0  0  0
M  END
