DB09350
 OpenBabel07062211533D

 54 55  0  0  0  0  0  0  0  0999 V2000
   -4.5141    2.3592   -1.0741 O   0  0  0  0  0  0  0  0  0  0  0  0
   -4.4699    0.8149   -2.9237 O   0  0  0  0  0  0  0  0  0  0  0  0
   -0.1573   -2.0709   -1.0609 O   0  0  0  0  0  0  0  0  0  0  0  0
    2.6032   -1.8868   -0.7784 O   0  0  0  0  0  0  0  0  0  0  0  0
    3.6060    0.7124   -0.5209 O   0  0  0  0  0  0  0  0  0  0  0  0
   -2.2937   -0.1505    0.4205 C   0  0  0  0  0  0  0  0  0  0  0  0
   -2.2680   -1.0514   -0.6585 C   0  0  0  0  0  0  0  0  0  0  0  0
   -1.5270   -0.4383    1.6708 C   0  0  0  0  0  0  0  0  0  0  0  0
   -3.0385    1.0288    0.3447 C   0  0  0  0  0  0  0  0  0  0  0  0
   -2.3583   -1.2275    2.6901 C   0  0  0  0  0  0  0  0  0  0  0  0
   -3.7392    1.2698   -0.8195 C   0  0  0  0  0  0  0  0  0  0  0  0
   -1.4717   -2.3135   -0.5774 C   0  0  0  0  0  0  0  0  0  0  0  0
   -2.9870   -0.7835   -1.8260 C   0  0  0  0  0  0  0  0  0  0  0  0
   -3.7142    0.3879   -1.8756 C   0  0  0  0  0  0  0  0  0  0  0  0
   -1.5613   -1.5456    3.9453 C   0  0  0  0  0  0  0  0  0  0  0  0
   -4.9746    2.0639   -2.4086 C   0  0  0  0  0  0  0  0  0  0  0  0
    0.6437   -3.2435   -1.0050 C   0  0  0  0  0  0  0  0  0  0  0  0
    3.1184    2.9727    0.1008 C   0  0  0  0  0  0  0  0  0  0  0  0
    2.0218   -2.9280   -1.5540 C   0  0  0  0  0  0  0  0  0  0  0  0
    4.0686    1.7961    0.2729 C   0  0  0  0  0  0  0  0  0  0  0  0
    1.7024    2.6239    0.5505 C   0  0  0  0  0  0  0  0  0  0  0  0
    4.4564   -0.4214   -0.4016 C   0  0  0  0  0  0  0  0  0  0  0  0
    3.9001   -1.5489   -1.2497 C   0  0  0  0  0  0  0  0  0  0  0  0
    0.7664    3.8144    0.4175 C   0  0  0  0  0  0  0  0  0  0  0  0
   -1.2161    0.5123    2.1263 H   0  0  0  0  0  0  0  0  0  0  0  0
   -0.5826   -0.9508    1.4544 H   0  0  0  0  0  0  0  0  0  0  0  0
   -3.0717    1.7348    1.1678 H   0  0  0  0  0  0  0  0  0  0  0  0
   -2.7218   -2.1643    2.2529 H   0  0  0  0  0  0  0  0  0  0  0  0
   -3.2479   -0.6500    2.9703 H   0  0  0  0  0  0  0  0  0  0  0  0
   -1.4417   -2.7311    0.4334 H   0  0  0  0  0  0  0  0  0  0  0  0
   -1.9460   -3.0819   -1.2027 H   0  0  0  0  0  0  0  0  0  0  0  0
   -2.9769   -1.4658   -2.6694 H   0  0  0  0  0  0  0  0  0  0  0  0
   -2.1802   -2.1000    4.6576 H   0  0  0  0  0  0  0  0  0  0  0  0
   -1.2183   -0.6284    4.4346 H   0  0  0  0  0  0  0  0  0  0  0  0
   -0.6853   -2.1574    3.7075 H   0  0  0  0  0  0  0  0  0  0  0  0
   -4.6570    2.8729   -3.0764 H   0  0  0  0  0  0  0  0  0  0  0  0
   -6.0699    2.0234   -2.4009 H   0  0  0  0  0  0  0  0  0  0  0  0
    0.1817   -4.0433   -1.5941 H   0  0  0  0  0  0  0  0  0  0  0  0
    0.7277   -3.5641    0.0399 H   0  0  0  0  0  0  0  0  0  0  0  0
    3.4948    3.8279    0.6737 H   0  0  0  0  0  0  0  0  0  0  0  0
    3.0926    3.2662   -0.9558 H   0  0  0  0  0  0  0  0  0  0  0  0
    2.6537   -3.8220   -1.5149 H   0  0  0  0  0  0  0  0  0  0  0  0
    1.9354   -2.5893   -2.5929 H   0  0  0  0  0  0  0  0  0  0  0  0
    4.1126    1.4960    1.3263 H   0  0  0  0  0  0  0  0  0  0  0  0
    5.0737    2.0879   -0.0526 H   0  0  0  0  0  0  0  0  0  0  0  0
    1.3041    1.7948   -0.0457 H   0  0  0  0  0  0  0  0  0  0  0  0
    1.7138    2.2934    1.5958 H   0  0  0  0  0  0  0  0  0  0  0  0
    5.4673   -0.1651   -0.7370 H   0  0  0  0  0  0  0  0  0  0  0  0
    4.4896   -0.7319    0.6493 H   0  0  0  0  0  0  0  0  0  0  0  0
    4.5583   -2.4223   -1.1878 H   0  0  0  0  0  0  0  0  0  0  0  0
    3.8263   -1.2227   -2.2937 H   0  0  0  0  0  0  0  0  0  0  0  0
    0.7057    4.1515   -0.6222 H   0  0  0  0  0  0  0  0  0  0  0  0
   -0.2417    3.5416    0.7451 H   0  0  0  0  0  0  0  0  0  0  0  0
    1.1079    4.6534    1.0321 H   0  0  0  0  0  0  0  0  0  0  0  0
  1 11  1  0  0  0  0
  1 16  1  0  0  0  0
  2 14  1  0  0  0  0
  2 16  1  0  0  0  0
  3 12  1  0  0  0  0
  3 17  1  0  0  0  0
  4 19  1  0  0  0  0
  4 23  1  0  0  0  0
  5 20  1  0  0  0  0
  5 22  1  0  0  0  0
  6  7  2  0  0  0  0
  6  8  1  0  0  0  0
  6  9  1  0  0  0  0
  7 12  1  0  0  0  0
  7 13  1  0  0  0  0
  8 10  1  0  0  0  0
  8 25  1  0  0  0  0
  8 26  1  0  0  0  0
  9 11  2  0  0  0  0
  9 27  1  0  0  0  0
 10 15  1  0  0  0  0
 10 28  1  0  0  0  0
 10 29  1  0  0  0  0
 11 14  1  0  0  0  0
 12 30  1  0  0  0  0
 12 31  1  0  0  0  0
 13 14  2  0  0  0  0
 13 32  1  0  0  0  0
 15 33  1  0  0  0  0
 15 34  1  0  0  0  0
 15 35  1  0  0  0  0
 16 36  1  0  0  0  0
 16 37  1  0  0  0  0
 17 19  1  0  0  0  0
 17 38  1  0  0  0  0
 17 39  1  0  0  0  0
 18 20  1  0  0  0  0
 18 21  1  0  0  0  0
 18 40  1  0  0  0  0
 18 41  1  0  0  0  0
 19 42  1  0  0  0  0
 19 43  1  0  0  0  0
 20 44  1  0  0  0  0
 20 45  1  0  0  0  0
 21 24  1  0  0  0  0
 21 46  1  0  0  0  0
 21 47  1  0  0  0  0
 22 23  1  0  0  0  0
 22 48  1  0  0  0  0
 22 49  1  0  0  0  0
 23 50  1  0  0  0  0
 23 51  1  0  0  0  0
 24 52  1  0  0  0  0
 24 53  1  0  0  0  0
 24 54  1  0  0  0  0
M  END
