DB09477
 OpenBabel07062211533D

 49 50  0  0  1  0  0  0  0  0999 V2000
    1.3963   -0.8853    1.6191 O   0  0  0  0  0  0  0  0  0  0  0  0
    4.2522   -3.4295    1.1747 O   0  0  0  0  0  0  0  0  0  0  0  0
    4.9804   -1.3254    1.6629 O   0  0  0  0  0  0  0  0  0  0  0  0
   -0.7747    2.0989   -2.1646 O   0  0  0  0  0  0  0  0  0  0  0  0
   -0.8914    3.4517   -0.3494 O   0  0  0  0  0  0  0  0  0  0  0  0
    3.0119   -0.3274    0.0588 N   0  0  0  0  0  0  0  0  0  0  0  0
    0.0605    1.3697    1.1865 N   0  0  0  0  0  0  0  0  0  0  0  0
    3.4750   -1.6856   -0.1944 C   0  0  1  0  0  0  0  0  0  0  0  0
    4.2958   -1.5825   -1.4746 C   0  0  0  0  0  0  0  0  0  0  0  0
    4.8341   -0.1543   -1.4371 C   0  0  0  0  0  0  0  0  0  0  0  0
    3.6954    0.6319   -0.8051 C   0  0  0  0  0  0  0  0  0  0  0  0
    1.9488   -0.0484    0.9033 C   0  0  0  0  0  0  0  0  0  0  0  0
    1.4879    1.3873    0.9150 C   0  0  2  0  0  0  0  0  0  0  0  0
    4.3187   -2.0902    0.9768 C   0  0  0  0  0  0  0  0  0  0  0  0
   -0.6985    1.0476   -0.0159 C   0  0  1  0  0  0  0  0  0  0  0  0
   -2.0859    0.5274    0.3857 C   0  0  0  0  0  0  0  0  0  0  0  0
    2.2359    2.1627    1.9807 C   0  0  0  0  0  0  0  0  0  0  0  0
   -2.9834    0.1292   -0.7964 C   0  0  0  0  0  0  0  0  0  0  0  0
   -0.8069    2.3269   -0.8268 C   0  0  0  0  0  0  0  0  0  0  0  0
   -4.3177   -0.4537   -0.4004 C   0  0  0  0  0  0  0  0  0  0  0  0
   -4.4495   -1.8297   -0.2121 C   0  0  0  0  0  0  0  0  0  0  0  0
   -5.4193    0.3832   -0.2220 C   0  0  0  0  0  0  0  0  0  0  0  0
   -5.6828   -2.3686    0.1542 C   0  0  0  0  0  0  0  0  0  0  0  0
   -6.6527   -0.1558    0.1445 C   0  0  0  0  0  0  0  0  0  0  0  0
   -6.7842   -1.5317    0.3325 C   0  0  0  0  0  0  0  0  0  0  0  0
    2.6139   -2.3563   -0.2849 H   0  0  0  0  0  0  0  0  0  0  0  0
    5.0966   -2.3246   -1.5453 H   0  0  0  0  0  0  0  0  0  0  0  0
    3.6399   -1.6990   -2.3459 H   0  0  0  0  0  0  0  0  0  0  0  0
    5.7243   -0.1074   -0.7988 H   0  0  0  0  0  0  0  0  0  0  0  0
    5.1073    0.2235   -2.4264 H   0  0  0  0  0  0  0  0  0  0  0  0
    4.0505    1.4975   -0.2419 H   0  0  0  0  0  0  0  0  0  0  0  0
    2.9866    0.9633   -1.5720 H   0  0  0  0  0  0  0  0  0  0  0  0
    1.6776    1.8840   -0.0402 H   0  0  0  0  0  0  0  0  0  0  0  0
   -0.1954    0.2791   -0.6157 H   0  0  0  0  0  0  0  0  0  0  0  0
   -0.2539    2.2573    1.5766 H   0  0  0  0  0  0  0  0  0  0  0  0
   -1.9635   -0.3434    1.0444 H   0  0  0  0  0  0  0  0  0  0  0  0
   -2.6116    1.2889    0.9790 H   0  0  0  0  0  0  0  0  0  0  0  0
    2.0585    1.7451    2.9791 H   0  0  0  0  0  0  0  0  0  0  0  0
    3.3177    2.1390    1.8164 H   0  0  0  0  0  0  0  0  0  0  0  0
    1.9236    3.2129    1.9962 H   0  0  0  0  0  0  0  0  0  0  0  0
   -2.4525   -0.5949   -1.4285 H   0  0  0  0  0  0  0  0  0  0  0  0
   -3.1642    0.9994   -1.4396 H   0  0  0  0  0  0  0  0  0  0  0  0
    4.7997   -3.7149    1.9369 H   0  0  0  0  0  0  0  0  0  0  0  0
   -3.5981   -2.4915   -0.3460 H   0  0  0  0  0  0  0  0  0  0  0  0
   -5.3286    1.4570   -0.3635 H   0  0  0  0  0  0  0  0  0  0  0  0
   -0.8347    2.9319   -2.6791 H   0  0  0  0  0  0  0  0  0  0  0  0
   -5.7852   -3.4397    0.3012 H   0  0  0  0  0  0  0  0  0  0  0  0
   -7.5103    0.4957    0.2840 H   0  0  0  0  0  0  0  0  0  0  0  0
   -7.7444   -1.9513    0.6182 H   0  0  0  0  0  0  0  0  0  0  0  0
  1 12  2  0  0  0  0
  2 14  1  0  0  0  0
  2 43  1  0  0  0  0
  3 14  2  0  0  0  0
  4 19  1  0  0  0  0
  4 46  1  0  0  0  0
  5 19  2  0  0  0  0
  6  8  1  0  0  0  0
  6 11  1  0  0  0  0
  6 12  1  0  0  0  0
  7 13  1  0  0  0  0
  7 15  1  0  0  0  0
  7 35  1  0  0  0  0
  8  9  1  0  0  0  0
  8 14  1  0  0  0  0
  8 26  1  6  0  0  0
  9 10  1  0  0  0  0
  9 27  1  0  0  0  0
  9 28  1  0  0  0  0
 10 11  1  0  0  0  0
 10 29  1  0  0  0  0
 10 30  1  0  0  0  0
 11 31  1  0  0  0  0
 11 32  1  0  0  0  0
 12 13  1  0  0  0  0
 13 17  1  0  0  0  0
 13 33  1  6  0  0  0
 15 16  1  0  0  0  0
 15 19  1  0  0  0  0
 15 34  1  6  0  0  0
 16 18  1  0  0  0  0
 16 36  1  0  0  0  0
 16 37  1  0  0  0  0
 17 38  1  0  0  0  0
 17 39  1  0  0  0  0
 17 40  1  0  0  0  0
 18 20  1  0  0  0  0
 18 41  1  0  0  0  0
 18 42  1  0  0  0  0
 20 21  2  0  0  0  0
 20 22  1  0  0  0  0
 21 23  1  0  0  0  0
 21 44  1  0  0  0  0
 22 24  2  0  0  0  0
 22 45  1  0  0  0  0
 23 25  2  0  0  0  0
 23 47  1  0  0  0  0
 24 25  1  0  0  0  0
 24 48  1  0  0  0  0
 25 49  1  0  0  0  0
M  END
