DB09195
 OpenBabel07062211533D

 55 59  0  0  1  0  0  0  0  0999 V2000
   -8.0538    3.1244    0.0217 F   0  0  0  0  0  0  0  0  0  0  0  0
   -6.2616    3.5209    1.1771 F   0  0  0  0  0  0  0  0  0  0  0  0
   -6.2044    3.6527   -0.9926 F   0  0  0  0  0  0  0  0  0  0  0  0
    3.8968   -0.5931    0.8111 N   0  0  0  0  0  0  0  0  0  0  0  0
    5.2390   -2.2296    0.3071 N   0  0  0  0  0  0  0  0  0  0  0  0
    3.9424   -2.7212    0.4851 N   0  0  0  0  0  0  0  0  0  0  0  0
   -0.5799   -1.5282    0.0839 N   0  0  0  0  0  0  0  0  0  0  0  0
   -3.2783   -0.6159   -0.1287 N   0  0  0  0  0  0  0  0  0  0  0  0
    5.0913    1.4223    0.7434 C   0  0  1  0  0  0  0  0  0  0  0  0
    6.0776    0.2238    0.4950 C   0  0  2  0  0  0  0  0  0  0  0  0
    5.1142    2.2434   -0.5538 C   0  0  0  0  0  0  0  0  0  0  0  0
    6.6980    0.4819   -0.8738 C   0  0  0  0  0  0  0  0  0  0  0  0
    3.7019    0.8121    1.0671 C   0  0  0  0  0  0  0  0  0  0  0  0
    5.6536    1.3021   -1.6207 C   0  0  0  0  0  0  0  0  0  0  0  0
    5.1698   -0.9394    0.5102 C   0  0  1  0  0  0  0  0  0  0  0  0
    3.1525   -1.7050    0.7888 C   0  0  0  0  0  0  0  0  0  0  0  0
    1.7088   -1.7291    1.0665 C   0  0  0  0  0  0  0  0  0  0  0  0
    0.8537   -1.5349   -0.2048 C   0  0  0  0  0  0  0  0  0  0  0  0
   -1.3529   -1.7732   -1.1396 C   0  0  0  0  0  0  0  0  0  0  0  0
   -0.9792   -0.2467    0.6788 C   0  0  0  0  0  0  0  0  0  0  0  0
   -2.8534   -1.8246   -0.8414 C   0  0  0  0  0  0  0  0  0  0  0  0
   -2.4667   -0.2480    1.0383 C   0  0  0  0  0  0  0  0  0  0  0  0
   -4.6275   -0.2446   -0.1348 C   0  0  0  0  0  0  0  0  0  0  0  0
   -4.9811    1.1019   -0.0488 C   0  0  0  0  0  0  0  0  0  0  0  0
   -5.6189   -1.2216   -0.2264 C   0  0  0  0  0  0  0  0  0  0  0  0
   -6.3261    1.4715   -0.0543 C   0  0  0  0  0  0  0  0  0  0  0  0
   -6.9639   -0.8520   -0.2320 C   0  0  0  0  0  0  0  0  0  0  0  0
   -7.3174    0.4945   -0.1460 C   0  0  0  0  0  0  0  0  0  0  0  0
   -6.7046    2.9108    0.0381 C   0  0  0  0  0  0  0  0  0  0  0  0
    5.4225    2.0535    1.5764 H   0  0  0  0  0  0  0  0  0  0  0  0
    6.8305    0.1394    1.2847 H   0  0  0  0  0  0  0  0  0  0  0  0
    4.1403    2.6623   -0.8234 H   0  0  0  0  0  0  0  0  0  0  0  0
    5.8099    3.0834   -0.4334 H   0  0  0  0  0  0  0  0  0  0  0  0
    7.6095    1.0809   -0.7552 H   0  0  0  0  0  0  0  0  0  0  0  0
    6.9630   -0.4325   -1.4141 H   0  0  0  0  0  0  0  0  0  0  0  0
    2.8916    1.1850    0.4359 H   0  0  0  0  0  0  0  0  0  0  0  0
    3.4511    0.9235    2.1261 H   0  0  0  0  0  0  0  0  0  0  0  0
    4.8538    0.6555   -1.9999 H   0  0  0  0  0  0  0  0  0  0  0  0
    6.0838    1.8432   -2.4686 H   0  0  0  0  0  0  0  0  0  0  0  0
    1.4516   -2.6925    1.5254 H   0  0  0  0  0  0  0  0  0  0  0  0
    1.4788   -0.9654    1.8172 H   0  0  0  0  0  0  0  0  0  0  0  0
    1.1573   -0.6247   -0.7401 H   0  0  0  0  0  0  0  0  0  0  0  0
    1.0912   -2.3725   -0.8758 H   0  0  0  0  0  0  0  0  0  0  0  0
   -1.0638   -2.7332   -1.5844 H   0  0  0  0  0  0  0  0  0  0  0  0
   -1.1522   -0.9930   -1.8864 H   0  0  0  0  0  0  0  0  0  0  0  0
   -0.4247   -0.0455    1.6008 H   0  0  0  0  0  0  0  0  0  0  0  0
   -0.7729    0.5827   -0.0114 H   0  0  0  0  0  0  0  0  0  0  0  0
   -3.3857   -1.9199   -1.7960 H   0  0  0  0  0  0  0  0  0  0  0  0
   -3.0772   -2.7128   -0.2367 H   0  0  0  0  0  0  0  0  0  0  0  0
   -2.6585   -0.9622    1.8498 H   0  0  0  0  0  0  0  0  0  0  0  0
   -2.7263    0.7472    1.4170 H   0  0  0  0  0  0  0  0  0  0  0  0
   -4.2159    1.8727    0.0086 H   0  0  0  0  0  0  0  0  0  0  0  0
   -5.3810   -2.2801   -0.2803 H   0  0  0  0  0  0  0  0  0  0  0  0
   -7.7361   -1.6128   -0.2999 H   0  0  0  0  0  0  0  0  0  0  0  0
   -8.3704    0.7624   -0.1509 H   0  0  0  0  0  0  0  0  0  0  0  0
  1 29  1  0  0  0  0
  2 29  1  0  0  0  0
  3 29  1  0  0  0  0
  4 13  1  0  0  0  0
  4 15  1  0  0  0  0
  4 16  2  0  0  0  0
  5  6  2  0  0  0  0
  5 15  1  0  0  0  0
  6 16  1  0  0  0  0
  7 18  1  0  0  0  0
  7 19  1  0  0  0  0
  7 20  1  0  0  0  0
  8 21  1  0  0  0  0
  8 22  1  0  0  0  0
  8 23  1  0  0  0  0
  9 10  1  6  0  0  0
  9 11  1  0  0  0  0
  9 13  1  0  0  0  0
  9 30  1  0  0  0  0
 10 12  1  0  0  0  0
 10 31  1  1  0  0  0
 11 14  1  0  0  0  0
 11 32  1  0  0  0  0
 11 33  1  0  0  0  0
 12 14  1  0  0  0  0
 12 34  1  0  0  0  0
 12 35  1  0  0  0  0
 13 36  1  0  0  0  0
 13 37  1  0  0  0  0
 14 38  1  0  0  0  0
 14 39  1  0  0  0  0
 15 10  1  6  0  0  0
 16 17  1  0  0  0  0
 17 18  1  0  0  0  0
 17 40  1  0  0  0  0
 17 41  1  0  0  0  0
 18 42  1  0  0  0  0
 18 43  1  0  0  0  0
 19 21  1  0  0  0  0
 19 44  1  0  0  0  0
 19 45  1  0  0  0  0
 20 22  1  0  0  0  0
 20 46  1  0  0  0  0
 20 47  1  0  0  0  0
 21 48  1  0  0  0  0
 21 49  1  0  0  0  0
 22 50  1  0  0  0  0
 22 51  1  0  0  0  0
 23 24  2  0  0  0  0
 23 25  1  0  0  0  0
 24 26  1  0  0  0  0
 24 52  1  0  0  0  0
 25 27  2  0  0  0  0
 25 53  1  0  0  0  0
 26 28  2  0  0  0  0
 26 29  1  0  0  0  0
 27 28  1  0  0  0  0
 27 54  1  0  0  0  0
 28 55  1  0  0  0  0
M  END
