DB09494
 OpenBabel07062211533D

 51 50  0  0  0  0  0  0  0  0999 V2000
   10.4489   -0.5372   -0.1431 O   0  0  0  0  0  0  0  0  0  0  0  0
    0.4287   -0.4116    0.1852 C   0  0  0  0  0  0  0  0  0  0  0  0
   -0.8259    0.4651    0.1630 C   0  0  0  0  0  0  0  0  0  0  0  0
    1.7321    0.3929    0.1459 C   0  0  0  0  0  0  0  0  0  0  0  0
   -2.1296   -0.3402    0.1292 C   0  0  0  0  0  0  0  0  0  0  0  0
    2.9876   -0.4805    0.0901 C   0  0  0  0  0  0  0  0  0  0  0  0
   -3.4215    0.4817    0.0798 C   0  0  0  0  0  0  0  0  0  0  0  0
    4.2550    0.3752    0.0290 C   0  0  0  0  0  0  0  0  0  0  0  0
   -4.7187   -0.3266   -0.0222 C   0  0  0  0  0  0  0  0  0  0  0  0
    5.5129   -0.4950    0.0061 C   0  0  0  0  0  0  0  0  0  0  0  0
   -6.0137    0.4914   -0.0092 C   0  0  0  0  0  0  0  0  0  0  0  0
    6.7790    0.3586   -0.0882 C   0  0  0  0  0  0  0  0  0  0  0  0
   -7.2777   -0.3705   -0.0321 C   0  0  0  0  0  0  0  0  0  0  0  0
    8.0382   -0.5130   -0.0811 C   0  0  0  0  0  0  0  0  0  0  0  0
   -8.5360    0.4950   -0.1104 C   0  0  0  0  0  0  0  0  0  0  0  0
    9.3146    0.3172   -0.1412 C   0  0  0  0  0  0  0  0  0  0  0  0
   -9.7944   -0.3559   -0.1719 C   0  0  0  0  0  0  0  0  0  0  0  0
    0.4175   -1.0389    1.0850 H   0  0  0  0  0  0  0  0  0  0  0  0
    0.4043   -1.0918   -0.6752 H   0  0  0  0  0  0  0  0  0  0  0  0
   -0.8283    1.1170    1.0449 H   0  0  0  0  0  0  0  0  0  0  0  0
   -0.7923    1.1210   -0.7156 H   0  0  0  0  0  0  0  0  0  0  0  0
    1.7784    1.0414    1.0295 H   0  0  0  0  0  0  0  0  0  0  0  0
    1.7166    1.0532   -0.7303 H   0  0  0  0  0  0  0  0  0  0  0  0
   -2.1641   -0.9937    1.0100 H   0  0  0  0  0  0  0  0  0  0  0  0
   -2.1077   -1.0028   -0.7455 H   0  0  0  0  0  0  0  0  0  0  0  0
    3.0199   -1.1286    0.9742 H   0  0  0  0  0  0  0  0  0  0  0  0
    2.9414   -1.1340   -0.7894 H   0  0  0  0  0  0  0  0  0  0  0  0
   -3.4674    1.1113    0.9773 H   0  0  0  0  0  0  0  0  0  0  0  0
   -3.3707    1.1670   -0.7756 H   0  0  0  0  0  0  0  0  0  0  0  0
    4.2276    1.0068   -0.8673 H   0  0  0  0  0  0  0  0  0  0  0  0
    4.2893    1.0456    0.8964 H   0  0  0  0  0  0  0  0  0  0  0  0
   -4.6879   -0.9273   -0.9399 H   0  0  0  0  0  0  0  0  0  0  0  0
   -4.7475   -1.0390    0.8120 H   0  0  0  0  0  0  0  0  0  0  0  0
    5.5493   -1.1095    0.9139 H   0  0  0  0  0  0  0  0  0  0  0  0
    5.4705   -1.1819   -0.8480 H   0  0  0  0  0  0  0  0  0  0  0  0
   -6.0126    1.1644   -0.8754 H   0  0  0  0  0  0  0  0  0  0  0  0
   -6.0278    1.1268    0.8849 H   0  0  0  0  0  0  0  0  0  0  0  0
    6.8144    1.0579    0.7560 H   0  0  0  0  0  0  0  0  0  0  0  0
    6.7532    0.9588   -1.0056 H   0  0  0  0  0  0  0  0  0  0  0  0
   -7.3121   -0.9975    0.8669 H   0  0  0  0  0  0  0  0  0  0  0  0
   -7.2429   -1.0452   -0.8959 H   0  0  0  0  0  0  0  0  0  0  0  0
    8.0595   -1.1392    0.8196 H   0  0  0  0  0  0  0  0  0  0  0  0
    8.0194   -1.2096   -0.9286 H   0  0  0  0  0  0  0  0  0  0  0  0
   -8.5884    1.1551    0.7634 H   0  0  0  0  0  0  0  0  0  0  0  0
   -8.4938    1.1355   -0.9991 H   0  0  0  0  0  0  0  0  0  0  0  0
    9.3374    0.9236   -1.0524 H   0  0  0  0  0  0  0  0  0  0  0  0
    9.3835    0.9820    0.7259 H   0  0  0  0  0  0  0  0  0  0  0  0
   -9.7878   -1.0030   -1.0547 H   0  0  0  0  0  0  0  0  0  0  0  0
   -9.8843   -0.9879    0.7173 H   0  0  0  0  0  0  0  0  0  0  0  0
  -10.6817    0.2828   -0.2257 H   0  0  0  0  0  0  0  0  0  0  0  0
   11.2357    0.0328   -0.1822 H   0  0  0  0  0  0  0  0  0  0  0  0
  1 16  1  0  0  0  0
  1 51  1  0  0  0  0
  2  3  1  0  0  0  0
  2  4  1  0  0  0  0
  2 18  1  0  0  0  0
  2 19  1  0  0  0  0
  3  5  1  0  0  0  0
  3 20  1  0  0  0  0
  3 21  1  0  0  0  0
  4  6  1  0  0  0  0
  4 22  1  0  0  0  0
  4 23  1  0  0  0  0
  5  7  1  0  0  0  0
  5 24  1  0  0  0  0
  5 25  1  0  0  0  0
  6  8  1  0  0  0  0
  6 26  1  0  0  0  0
  6 27  1  0  0  0  0
  7  9  1  0  0  0  0
  7 28  1  0  0  0  0
  7 29  1  0  0  0  0
  8 10  1  0  0  0  0
  8 30  1  0  0  0  0
  8 31  1  0  0  0  0
  9 11  1  0  0  0  0
  9 32  1  0  0  0  0
  9 33  1  0  0  0  0
 10 12  1  0  0  0  0
 10 34  1  0  0  0  0
 10 35  1  0  0  0  0
 11 13  1  0  0  0  0
 11 36  1  0  0  0  0
 11 37  1  0  0  0  0
 12 14  1  0  0  0  0
 12 38  1  0  0  0  0
 12 39  1  0  0  0  0
 13 15  1  0  0  0  0
 13 40  1  0  0  0  0
 13 41  1  0  0  0  0
 14 16  1  0  0  0  0
 14 42  1  0  0  0  0
 14 43  1  0  0  0  0
 15 17  1  0  0  0  0
 15 44  1  0  0  0  0
 15 45  1  0  0  0  0
 16 46  1  0  0  0  0
 16 47  1  0  0  0  0
 17 48  1  0  0  0  0
 17 49  1  0  0  0  0
 17 50  1  0  0  0  0
M  END
