DB09143
 OpenBabel07062211533D

 61 64  0  0  1  0  0  0  0  0999 V2000
   -7.9805    3.5611   -0.6497 F   0  0  0  0  0  0  0  0  0  0  0  0
  -10.1304    3.8601   -0.3965 F   0  0  0  0  0  0  0  0  0  0  0  0
   -9.3851    2.9921   -2.2583 F   0  0  0  0  0  0  0  0  0  0  0  0
    7.9257    0.9734    0.0716 O   0  0  0  0  0  0  0  0  0  0  0  0
   -0.8597   -0.3563    1.8898 O   0  0  0  0  0  0  0  0  0  0  0  0
   -9.3386    1.7471   -0.3402 O   0  0  0  0  0  0  0  0  0  0  0  0
    5.2340    0.2023   -0.1388 N   0  0  0  0  0  0  0  0  0  0  0  0
    3.1115    0.2219    0.9076 N   0  0  0  0  0  0  0  0  0  0  0  0
   -0.0595   -1.3595   -0.0810 N   0  0  0  0  0  0  0  0  0  0  0  0
    6.9223    1.9806   -0.0950 C   0  0  1  0  0  0  0  0  0  0  0  0
    7.5929   -0.2105   -0.6603 C   0  0  2  0  0  0  0  0  0  0  0  0
    5.5900    1.4886    0.4768 C   0  0  0  0  0  0  0  0  0  0  0  0
    6.2930   -0.8130   -0.1189 C   0  0  0  0  0  0  0  0  0  0  0  0
    7.3994    3.2341    0.6253 C   0  0  0  0  0  0  0  0  0  0  0  0
    8.7516   -1.1876   -0.5158 C   0  0  0  0  0  0  0  0  0  0  0  0
    3.8917   -0.1890   -0.1172 C   0  0  0  0  0  0  0  0  0  0  0  0
    3.4455   -0.9821   -1.1622 C   0  0  0  0  0  0  0  0  0  0  0  0
    2.1129   -1.3790   -1.1549 C   0  0  0  0  0  0  0  0  0  0  0  0
    1.2790   -0.9763   -0.1176 C   0  0  0  0  0  0  0  0  0  0  0  0
    1.8220   -0.1835    0.8806 C   0  0  0  0  0  0  0  0  0  0  0  0
   -2.3719   -1.6272    0.6613 C   0  0  0  0  0  0  0  0  0  0  0  0
   -3.4978   -0.8189    0.5051 C   0  0  0  0  0  0  0  0  0  0  0  0
   -4.7492   -1.3989    0.2967 C   0  0  0  0  0  0  0  0  0  0  0  0
   -1.0245   -1.0410    0.8858 C   0  0  0  0  0  0  0  0  0  0  0  0
   -5.9366   -0.5840    0.1306 C   0  0  0  0  0  0  0  0  0  0  0  0
   -2.4972   -3.0154    0.6090 C   0  0  0  0  0  0  0  0  0  0  0  0
   -4.8745   -2.7872    0.2445 C   0  0  0  0  0  0  0  0  0  0  0  0
   -3.3527    0.6711    0.5624 C   0  0  0  0  0  0  0  0  0  0  0  0
   -3.7485   -3.5954    0.4007 C   0  0  0  0  0  0  0  0  0  0  0  0
   -6.6932   -0.2208    1.2448 C   0  0  0  0  0  0  0  0  0  0  0  0
   -6.3237   -0.1644   -1.1421 C   0  0  0  0  0  0  0  0  0  0  0  0
   -7.8366    0.5620    1.0864 C   0  0  0  0  0  0  0  0  0  0  0  0
   -7.4672    0.6183   -1.3006 C   0  0  0  0  0  0  0  0  0  0  0  0
   -8.2238    0.9815   -0.1864 C   0  0  0  0  0  0  0  0  0  0  0  0
   -9.1944    3.0377   -0.9227 C   0  0  0  0  0  0  0  0  0  0  0  0
    6.8204    2.2050   -1.1647 H   0  0  0  0  0  0  0  0  0  0  0  0
    7.4808    0.0491   -1.7210 H   0  0  0  0  0  0  0  0  0  0  0  0
    4.8172    2.2427    0.2818 H   0  0  0  0  0  0  0  0  0  0  0  0
    5.6676    1.3492    1.5627 H   0  0  0  0  0  0  0  0  0  0  0  0
    6.4299   -1.1459    0.9179 H   0  0  0  0  0  0  0  0  0  0  0  0
    6.0292   -1.6926   -0.7167 H   0  0  0  0  0  0  0  0  0  0  0  0
    8.3584    3.5676    0.2144 H   0  0  0  0  0  0  0  0  0  0  0  0
    6.6756    4.0489    0.5277 H   0  0  0  0  0  0  0  0  0  0  0  0
    7.5662    3.0367    1.6900 H   0  0  0  0  0  0  0  0  0  0  0  0
    8.5611   -2.1148   -1.0648 H   0  0  0  0  0  0  0  0  0  0  0  0
    9.6764   -0.7403   -0.8961 H   0  0  0  0  0  0  0  0  0  0  0  0
    8.9312   -1.4319    0.5370 H   0  0  0  0  0  0  0  0  0  0  0  0
    4.0916   -1.2847   -1.9798 H   0  0  0  0  0  0  0  0  0  0  0  0
    1.7362   -1.9991   -1.9639 H   0  0  0  0  0  0  0  0  0  0  0  0
    1.2719    0.1878    1.7330 H   0  0  0  0  0  0  0  0  0  0  0  0
   -0.3644   -1.9412   -0.8590 H   0  0  0  0  0  0  0  0  0  0  0  0
   -1.6304   -3.6594    0.7342 H   0  0  0  0  0  0  0  0  0  0  0  0
   -5.8419   -3.2574    0.0833 H   0  0  0  0  0  0  0  0  0  0  0  0
   -4.1085    1.2026   -0.0223 H   0  0  0  0  0  0  0  0  0  0  0  0
   -2.3976    1.0020    0.1408 H   0  0  0  0  0  0  0  0  0  0  0  0
   -3.4167    1.0131    1.6006 H   0  0  0  0  0  0  0  0  0  0  0  0
   -3.8462   -4.6763    0.3614 H   0  0  0  0  0  0  0  0  0  0  0  0
   -6.4050   -0.5389    2.2441 H   0  0  0  0  0  0  0  0  0  0  0  0
   -5.7459   -0.4398   -2.0212 H   0  0  0  0  0  0  0  0  0  0  0  0
   -8.4215    0.8426    1.9581 H   0  0  0  0  0  0  0  0  0  0  0  0
   -7.7609    0.9329   -2.2982 H   0  0  0  0  0  0  0  0  0  0  0  0
  1 35  1  0  0  0  0
  2 35  1  0  0  0  0
  3 35  1  0  0  0  0
  4 10  1  0  0  0  0
  4 11  1  0  0  0  0
  5 24  2  0  0  0  0
  6 34  1  0  0  0  0
  6 35  1  0  0  0  0
  7 12  1  0  0  0  0
  7 13  1  0  0  0  0
  7 16  1  0  0  0  0
  8 16  2  0  0  0  0
  8 20  1  0  0  0  0
  9 19  1  0  0  0  0
  9 24  1  0  0  0  0
  9 51  1  0  0  0  0
 10 12  1  0  0  0  0
 10 14  1  0  0  0  0
 10 36  1  6  0  0  0
 11 13  1  0  0  0  0
 11 15  1  0  0  0  0
 11 37  1  6  0  0  0
 12 38  1  0  0  0  0
 12 39  1  0  0  0  0
 13 40  1  0  0  0  0
 13 41  1  0  0  0  0
 14 42  1  0  0  0  0
 14 43  1  0  0  0  0
 14 44  1  0  0  0  0
 15 45  1  0  0  0  0
 15 46  1  0  0  0  0
 15 47  1  0  0  0  0
 16 17  1  0  0  0  0
 17 18  2  0  0  0  0
 17 48  1  0  0  0  0
 18 19  1  0  0  0  0
 18 49  1  0  0  0  0
 19 20  2  0  0  0  0
 20 50  1  0  0  0  0
 21 22  2  0  0  0  0
 21 24  1  0  0  0  0
 21 26  1  0  0  0  0
 22 23  1  0  0  0  0
 22 28  1  0  0  0  0
 23 25  1  0  0  0  0
 23 27  2  0  0  0  0
 25 30  2  0  0  0  0
 25 31  1  0  0  0  0
 26 29  2  0  0  0  0
 26 52  1  0  0  0  0
 27 29  1  0  0  0  0
 27 53  1  0  0  0  0
 28 54  1  0  0  0  0
 28 55  1  0  0  0  0
 28 56  1  0  0  0  0
 29 57  1  0  0  0  0
 30 32  1  0  0  0  0
 30 58  1  0  0  0  0
 31 33  2  0  0  0  0
 31 59  1  0  0  0  0
 32 34  2  0  0  0  0
 32 60  1  0  0  0  0
 33 34  1  0  0  0  0
 33 61  1  0  0  0  0
M  END
