DB09101
 OpenBabel07062211533D

 54 56  0  0  1  0  0  0  0  0999 V2000
    6.2502    2.6504    2.0806 Cl  0  0  0  0  0  0  0  0  0  0  0  0
    4.4784    2.4801   -0.2807 F   0  0  0  0  0  0  0  0  0  0  0  0
   -3.3703   -0.6735   -2.5184 O   0  0  0  0  0  0  0  0  0  0  0  0
    1.8913   -2.1558   -1.3225 O   0  0  0  0  0  0  0  0  0  0  0  0
    0.0452    3.8746   -0.6264 O   0  0  0  0  0  0  0  0  0  0  0  0
   -1.9972    5.0235    0.5486 O   0  0  0  0  0  0  0  0  0  0  0  0
   -3.9945    4.1961   -0.1975 O   0  0  0  0  0  0  0  0  0  0  0  0
   -2.1000    0.4226   -0.2868 N   0  0  0  0  0  0  0  0  0  0  0  0
   -2.8808   -0.8057   -0.1625 C   0  0  1  0  0  0  0  0  0  0  0  0
   -3.4505   -0.9481    1.2683 C   0  0  0  0  0  0  0  0  0  0  0  0
   -0.7255    0.3278   -0.6077 C   0  0  0  0  0  0  0  0  0  0  0  0
   -3.9725   -0.8151   -1.2356 C   0  0  0  0  0  0  0  0  0  0  0  0
    0.0450    1.5070   -0.7321 C   0  0  0  0  0  0  0  0  0  0  0  0
   -4.2230   -2.2618    1.4336 C   0  0  0  0  0  0  0  0  0  0  0  0
   -2.3942   -0.8239    2.3710 C   0  0  0  0  0  0  0  0  0  0  0  0
   -2.6689    1.6696   -0.1000 C   0  0  0  0  0  0  0  0  0  0  0  0
   -0.0641   -0.8960   -0.8152 C   0  0  0  0  0  0  0  0  0  0  0  0
   -2.0384    2.8457   -0.1922 C   0  0  1  0  0  0  0  0  0  0  0  0
    2.0324    0.2313   -1.2474 C   0  0  0  0  0  0  0  0  0  0  0  0
   -0.5930    2.8343   -0.5253 C   0  0  0  0  0  0  0  0  0  0  0  0
    1.4096    1.4594   -1.0485 C   0  0  0  0  0  0  0  0  0  0  0  0
    1.2975   -0.9435   -1.1311 C   0  0  0  0  0  0  0  0  0  0  0  0
    3.4863    0.1933   -1.5834 C   0  0  0  0  0  0  0  0  0  0  0  0
    4.3939    0.1168   -0.3728 C   0  0  0  0  0  0  0  0  0  0  0  0
   -2.8055    4.0698    0.0390 C   0  0  0  0  0  0  0  0  0  0  0  0
    4.8413    1.2869    0.2136 C   0  0  0  0  0  0  0  0  0  0  0  0
    4.7535   -1.1257    0.1178 C   0  0  0  0  0  0  0  0  0  0  0  0
    1.0655   -3.3097   -1.1844 C   0  0  0  0  0  0  0  0  0  0  0  0
    5.6767    1.2121    1.3282 C   0  0  0  0  0  0  0  0  0  0  0  0
    5.5886   -1.2005    1.2323 C   0  0  0  0  0  0  0  0  0  0  0  0
    6.0502   -0.0316    1.8376 C   0  0  0  0  0  0  0  0  0  0  0  0
   -2.3270   -1.7227   -0.3406 H   0  0  0  0  0  0  0  0  0  0  0  0
   -4.1788   -0.1456    1.4460 H   0  0  0  0  0  0  0  0  0  0  0  0
   -4.7116   -0.0178   -1.1078 H   0  0  0  0  0  0  0  0  0  0  0  0
   -4.5126   -1.7657   -1.2482 H   0  0  0  0  0  0  0  0  0  0  0  0
   -4.5681   -2.3812    2.4667 H   0  0  0  0  0  0  0  0  0  0  0  0
   -3.5948   -3.1253    1.1901 H   0  0  0  0  0  0  0  0  0  0  0  0
   -5.1139   -2.2917    0.7998 H   0  0  0  0  0  0  0  0  0  0  0  0
   -1.9203    0.1622    2.3718 H   0  0  0  0  0  0  0  0  0  0  0  0
   -2.8446   -0.9646    3.3596 H   0  0  0  0  0  0  0  0  0  0  0  0
   -1.6107   -1.5790    2.2479 H   0  0  0  0  0  0  0  0  0  0  0  0
   -3.7250    1.6319    0.1439 H   0  0  0  0  0  0  0  0  0  0  0  0
   -0.6053   -1.8196   -0.7300 H   0  0  0  0  0  0  0  0  0  0  0  0
    1.9854    2.3767   -1.1427 H   0  0  0  0  0  0  0  0  0  0  0  0
    3.7528    1.0753   -2.1829 H   0  0  0  0  0  0  0  0  0  0  0  0
    3.7044   -0.6449   -2.2594 H   0  0  0  0  0  0  0  0  0  0  0  0
   -2.9306    0.1931   -2.5419 H   0  0  0  0  0  0  0  0  0  0  0  0
    4.4088   -2.0434   -0.3481 H   0  0  0  0  0  0  0  0  0  0  0  0
    0.2735   -3.3374   -1.9408 H   0  0  0  0  0  0  0  0  0  0  0  0
    0.6838   -3.4179   -0.1631 H   0  0  0  0  0  0  0  0  0  0  0  0
    1.7032   -4.1806   -1.3708 H   0  0  0  0  0  0  0  0  0  0  0  0
    5.8811   -2.1689    1.6278 H   0  0  0  0  0  0  0  0  0  0  0  0
   -2.4774    5.8622    0.7172 H   0  0  0  0  0  0  0  0  0  0  0  0
    6.7007   -0.1057    2.7053 H   0  0  0  0  0  0  0  0  0  0  0  0
  1 29  1  0  0  0  0
  2 26  1  0  0  0  0
  3 12  1  0  0  0  0
  3 47  1  0  0  0  0
  4 22  1  0  0  0  0
  4 28  1  0  0  0  0
  5 20  2  0  0  0  0
  6 25  1  0  0  0  0
  6 53  1  0  0  0  0
  7 25  2  0  0  0  0
  8  9  1  0  0  0  0
  8 11  1  0  0  0  0
  8 16  2  0  0  0  0
  9 10  1  0  0  0  0
  9 12  1  0  0  0  0
  9 32  1  6  0  0  0
 10 14  1  0  0  0  0
 10 15  1  0  0  0  0
 10 33  1  0  0  0  0
 11 13  2  0  0  0  0
 11 17  1  0  0  0  0
 12 34  1  0  0  0  0
 12 35  1  0  0  0  0
 13 20  1  0  0  0  0
 13 21  1  0  0  0  0
 14 36  1  0  0  0  0
 14 37  1  0  0  0  0
 14 38  1  0  0  0  0
 15 39  1  0  0  0  0
 15 40  1  0  0  0  0
 15 41  1  0  0  0  0
 16 18  1  0  0  0  0
 16 42  1  0  0  0  0
 17 22  2  0  0  0  0
 17 43  1  0  0  0  0
 18 20  1  0  0  0  0
 18 25  1  6  0  0  0
 19 21  2  0  0  0  0
 19 22  1  0  0  0  0
 19 23  1  0  0  0  0
 21 44  1  0  0  0  0
 23 24  1  0  0  0  0
 23 45  1  0  0  0  0
 23 46  1  0  0  0  0
 24 26  2  0  0  0  0
 24 27  1  0  0  0  0
 26 29  1  0  0  0  0
 27 30  2  0  0  0  0
 27 48  1  0  0  0  0
 28 49  1  0  0  0  0
 28 50  1  0  0  0  0
 28 51  1  0  0  0  0
 29 31  2  0  0  0  0
 30 31  1  0  0  0  0
 30 52  1  0  0  0  0
 31 54  1  0  0  0  0
M  END
