DB09074
 OpenBabel07062211533D

 55 59  0  0  0  0  0  0  0  0999 V2000
   -1.1735   -4.2425    1.7995 F   0  0  0  0  0  0  0  0  0  0  0  0
   -5.6032    1.5268   -1.6984 O   0  0  0  0  0  0  0  0  0  0  0  0
   -1.5036   -3.9301   -1.5032 O   0  0  0  0  0  0  0  0  0  0  0  0
    3.2403    3.7209    1.4468 O   0  0  0  0  0  0  0  0  0  0  0  0
   -3.6441    0.4774   -1.0054 N   0  0  0  0  0  0  0  0  0  0  0  0
   -2.3269   -1.9771   -0.5184 N   0  0  0  0  0  0  0  0  0  0  0  0
    2.3560    0.3179    0.9717 N   0  0  0  0  0  0  0  0  0  0  0  0
    2.3430    1.6113    1.3683 N   0  0  0  0  0  0  0  0  0  0  0  0
   -4.4429    2.5655    0.0447 C   0  0  0  0  0  0  0  0  0  0  0  0
   -4.9443    2.3328    1.4278 C   0  0  0  0  0  0  0  0  0  0  0  0
   -5.6536    3.2925    0.5179 C   0  0  0  0  0  0  0  0  0  0  0  0
   -4.6182    1.4788   -0.9662 C   0  0  0  0  0  0  0  0  0  0  0  0
   -2.4170    0.4611   -0.1965 C   0  0  0  0  0  0  0  0  0  0  0  0
   -3.7620   -0.6168   -1.9733 C   0  0  0  0  0  0  0  0  0  0  0  0
   -2.2297   -0.8977    0.4736 C   0  0  0  0  0  0  0  0  0  0  0  0
   -3.5657   -1.9704   -1.2971 C   0  0  0  0  0  0  0  0  0  0  0  0
   -1.3918   -2.9952   -0.7116 C   0  0  0  0  0  0  0  0  0  0  0  0
   -0.1558   -2.9586    0.0801 C   0  0  0  0  0  0  0  0  0  0  0  0
    0.9597   -2.2862   -0.4129 C   0  0  0  0  0  0  0  0  0  0  0  0
    2.1353   -2.2495    0.3370 C   0  0  0  0  0  0  0  0  0  0  0  0
   -0.1034   -3.5946    1.3177 C   0  0  0  0  0  0  0  0  0  0  0  0
    3.3317   -1.5290   -0.1866 C   0  0  0  0  0  0  0  0  0  0  0  0
    2.1917   -2.8854    1.5772 C   0  0  0  0  0  0  0  0  0  0  0  0
    1.0722   -3.5581    2.0675 C   0  0  0  0  0  0  0  0  0  0  0  0
    3.3412   -0.0959    0.2380 C   0  0  0  0  0  0  0  0  0  0  0  0
    4.4557    0.7736   -0.1903 C   0  0  0  0  0  0  0  0  0  0  0  0
    4.4227    2.1007    0.2294 C   0  0  0  0  0  0  0  0  0  0  0  0
    5.5138    0.3194   -0.9816 C   0  0  0  0  0  0  0  0  0  0  0  0
    3.2981    2.5567    1.0619 C   0  0  0  0  0  0  0  0  0  0  0  0
    5.4430    2.9840   -0.1361 C   0  0  0  0  0  0  0  0  0  0  0  0
    6.5336    1.2003   -1.3470 C   0  0  0  0  0  0  0  0  0  0  0  0
    6.4986    2.5291   -0.9256 C   0  0  0  0  0  0  0  0  0  0  0  0
   -3.5497    3.1703   -0.0778 H   0  0  0  0  0  0  0  0  0  0  0  0
   -5.4374    1.3951    1.6539 H   0  0  0  0  0  0  0  0  0  0  0  0
   -4.3712    2.7451    2.2491 H   0  0  0  0  0  0  0  0  0  0  0  0
   -5.5571    4.3506    0.7308 H   0  0  0  0  0  0  0  0  0  0  0  0
   -6.6342    3.0037    0.1605 H   0  0  0  0  0  0  0  0  0  0  0  0
   -2.4195    1.2473    0.5609 H   0  0  0  0  0  0  0  0  0  0  0  0
   -1.5850    0.6644   -0.8814 H   0  0  0  0  0  0  0  0  0  0  0  0
   -2.9868   -0.4543   -2.7318 H   0  0  0  0  0  0  0  0  0  0  0  0
   -4.7322   -0.5880   -2.4789 H   0  0  0  0  0  0  0  0  0  0  0  0
   -1.2766   -0.9156    1.0060 H   0  0  0  0  0  0  0  0  0  0  0  0
   -3.0225   -1.0710    1.2113 H   0  0  0  0  0  0  0  0  0  0  0  0
   -4.3866   -2.1726   -0.5988 H   0  0  0  0  0  0  0  0  0  0  0  0
   -3.5618   -2.7674   -2.0471 H   0  0  0  0  0  0  0  0  0  0  0  0
    0.9118   -1.7889   -1.3790 H   0  0  0  0  0  0  0  0  0  0  0  0
    3.3465   -1.5839   -1.2822 H   0  0  0  0  0  0  0  0  0  0  0  0
    4.2450   -2.0203    0.1710 H   0  0  0  0  0  0  0  0  0  0  0  0
    3.1007   -2.8625    2.1722 H   0  0  0  0  0  0  0  0  0  0  0  0
    1.1153   -4.0524    3.0334 H   0  0  0  0  0  0  0  0  0  0  0  0
    5.5731   -0.7077   -1.3272 H   0  0  0  0  0  0  0  0  0  0  0  0
    5.4331    4.0226    0.1823 H   0  0  0  0  0  0  0  0  0  0  0  0
    1.5426    1.8646    1.9387 H   0  0  0  0  0  0  0  0  0  0  0  0
    7.3574    0.8490   -1.9621 H   0  0  0  0  0  0  0  0  0  0  0  0
    7.2943    3.2103   -1.2127 H   0  0  0  0  0  0  0  0  0  0  0  0
  1 21  1  0  0  0  0
  2 12  2  0  0  0  0
  3 17  2  0  0  0  0
  4 29  2  0  0  0  0
  5 12  1  0  0  0  0
  5 13  1  0  0  0  0
  5 14  1  0  0  0  0
  6 15  1  0  0  0  0
  6 16  1  0  0  0  0
  6 17  1  0  0  0  0
  7  8  1  0  0  0  0
  7 25  2  0  0  0  0
  8 29  1  0  0  0  0
  8 53  1  0  0  0  0
  9 10  1  0  0  0  0
  9 11  1  0  0  0  0
  9 12  1  0  0  0  0
  9 33  1  0  0  0  0
 10 11  1  0  0  0  0
 10 34  1  0  0  0  0
 10 35  1  0  0  0  0
 11 36  1  0  0  0  0
 11 37  1  0  0  0  0
 13 15  1  0  0  0  0
 13 38  1  0  0  0  0
 13 39  1  0  0  0  0
 14 16  1  0  0  0  0
 14 40  1  0  0  0  0
 14 41  1  0  0  0  0
 15 42  1  0  0  0  0
 15 43  1  0  0  0  0
 16 44  1  0  0  0  0
 16 45  1  0  0  0  0
 17 18  1  0  0  0  0
 18 19  2  0  0  0  0
 18 21  1  0  0  0  0
 19 20  1  0  0  0  0
 19 46  1  0  0  0  0
 20 22  1  0  0  0  0
 20 23  2  0  0  0  0
 21 24  2  0  0  0  0
 22 25  1  0  0  0  0
 22 47  1  0  0  0  0
 22 48  1  0  0  0  0
 23 24  1  0  0  0  0
 23 49  1  0  0  0  0
 24 50  1  0  0  0  0
 25 26  1  0  0  0  0
 26 27  2  0  0  0  0
 26 28  1  0  0  0  0
 27 29  1  0  0  0  0
 27 30  1  0  0  0  0
 28 31  2  0  0  0  0
 28 51  1  0  0  0  0
 30 32  2  0  0  0  0
 30 52  1  0  0  0  0
 31 32  1  0  0  0  0
 31 54  1  0  0  0  0
 32 55  1  0  0  0  0
M  END
