DB09209
 OpenBabel07062211533D

 59 64  0  0  1  0  0  0  0  0999 V2000
   -0.7693    1.8722    0.7458 O   0  0  0  0  0  0  0  0  0  0  0  0
   -1.5027    3.9956   -0.5854 O   0  0  0  0  0  0  0  0  0  0  0  0
    1.6902    0.8214   -0.3843 O   0  0  0  0  0  0  0  0  0  0  0  0
    7.9359   -0.5699   -0.0837 O   0  0  0  0  0  0  0  0  0  0  0  0
   -4.8992   -1.3610    0.8381 N   0  0  0  0  0  0  0  0  0  0  0  0
    5.1549   -0.1927    0.3899 N   0  0  0  0  0  0  0  0  0  0  0  0
   -2.9390    0.7709    0.6408 C   0  0  1  0  0  0  0  0  0  0  0  0
   -4.2220    0.7453   -0.2041 C   0  0  2  0  0  0  0  0  0  0  0  0
   -4.5562   -0.7581   -0.4726 C   0  0  1  0  0  0  0  0  0  0  0  0
   -2.2161    2.1277    0.8098 C   0  0  2  0  0  0  0  0  0  0  0  0
   -3.1977    0.0608    1.9842 C   0  0  0  0  0  0  0  0  0  0  0  0
   -1.8631    0.0641   -0.1155 C   0  0  0  0  0  0  0  0  0  0  0  0
   -3.4232   -1.4987   -1.2631 C   0  0  0  0  0  0  0  0  0  0  0  0
   -3.7992   -1.3433    1.8077 C   0  0  0  0  0  0  0  0  0  0  0  0
   -2.0290   -1.0230   -0.9545 C   0  0  0  0  0  0  0  0  0  0  0  0
   -2.6345    3.2103   -0.2190 C   0  0  2  0  0  0  0  0  0  0  0  0
   -4.0864    1.5906   -1.4448 C   0  0  0  0  0  0  0  0  0  0  0  0
   -0.6551    0.7066    0.0374 C   0  0  0  0  0  0  0  0  0  0  0  0
   -3.3424    2.7066   -1.4488 C   0  0  0  0  0  0  0  0  0  0  0  0
   -0.8827   -1.5413   -1.5594 C   0  0  0  0  0  0  0  0  0  0  0  0
   -5.4917   -2.6901    0.7288 C   0  0  0  0  0  0  0  0  0  0  0  0
    0.4912    0.2091   -0.5422 C   0  0  0  0  0  0  0  0  0  0  0  0
    0.3719   -0.9388   -1.3362 C   0  0  0  0  0  0  0  0  0  0  0  0
    2.8584    0.0004   -0.4500 C   0  0  0  0  0  0  0  0  0  0  0  0
    3.9435    0.6246    0.4129 C   0  0  0  0  0  0  0  0  0  0  0  0
    5.6971   -0.2836   -0.9728 C   0  0  0  0  0  0  0  0  0  0  0  0
    6.1704    0.3541    1.3005 C   0  0  0  0  0  0  0  0  0  0  0  0
    6.9663   -1.1308   -0.9693 C   0  0  0  0  0  0  0  0  0  0  0  0
    7.4291   -0.5073    1.2501 C   0  0  0  0  0  0  0  0  0  0  0  0
   -5.0529    1.1845    0.3686 H   0  0  0  0  0  0  0  0  0  0  0  0
   -5.4647   -0.7936   -1.0898 H   0  0  0  0  0  0  0  0  0  0  0  0
   -2.3967    2.5384    1.8117 H   0  0  0  0  0  0  0  0  0  0  0  0
   -3.8957    0.6694    2.5750 H   0  0  0  0  0  0  0  0  0  0  0  0
   -2.2770   -0.0207    2.5763 H   0  0  0  0  0  0  0  0  0  0  0  0
   -3.5962   -1.3128   -2.3318 H   0  0  0  0  0  0  0  0  0  0  0  0
   -3.4801   -2.5831   -1.1275 H   0  0  0  0  0  0  0  0  0  0  0  0
   -3.0121   -2.0517    1.5211 H   0  0  0  0  0  0  0  0  0  0  0  0
   -4.1672   -1.6740    2.7871 H   0  0  0  0  0  0  0  0  0  0  0  0
   -3.3401    3.8939    0.2709 H   0  0  0  0  0  0  0  0  0  0  0  0
   -4.6369    1.3099   -2.3372 H   0  0  0  0  0  0  0  0  0  0  0  0
   -3.3069    3.3137   -2.3489 H   0  0  0  0  0  0  0  0  0  0  0  0
   -0.9535   -2.3922   -2.2316 H   0  0  0  0  0  0  0  0  0  0  0  0
   -4.7734   -3.4529    0.4126 H   0  0  0  0  0  0  0  0  0  0  0  0
   -6.3292   -2.6874    0.0226 H   0  0  0  0  0  0  0  0  0  0  0  0
   -5.9035   -3.0002    1.6959 H   0  0  0  0  0  0  0  0  0  0  0  0
    1.2249   -1.3675   -1.8557 H   0  0  0  0  0  0  0  0  0  0  0  0
   -1.0937    4.3184    0.2356 H   0  0  0  0  0  0  0  0  0  0  0  0
    2.6582   -1.0130   -0.0771 H   0  0  0  0  0  0  0  0  0  0  0  0
    3.1404   -0.0428   -1.5054 H   0  0  0  0  0  0  0  0  0  0  0  0
    4.1376    1.6533    0.0811 H   0  0  0  0  0  0  0  0  0  0  0  0
    3.5620    0.7053    1.4392 H   0  0  0  0  0  0  0  0  0  0  0  0
    5.9237    0.7167   -1.3640 H   0  0  0  0  0  0  0  0  0  0  0  0
    5.0077   -0.7775   -1.6623 H   0  0  0  0  0  0  0  0  0  0  0  0
    5.7914    0.3690    2.3287 H   0  0  0  0  0  0  0  0  0  0  0  0
    6.4218    1.3839    1.0152 H   0  0  0  0  0  0  0  0  0  0  0  0
    6.7608   -2.1681   -0.6775 H   0  0  0  0  0  0  0  0  0  0  0  0
    7.4051   -1.1500   -1.9722 H   0  0  0  0  0  0  0  0  0  0  0  0
    8.2075   -0.0671    1.8814 H   0  0  0  0  0  0  0  0  0  0  0  0
    7.2393   -1.5232    1.6175 H   0  0  0  0  0  0  0  0  0  0  0  0
  1 10  1  0  0  0  0
  1 18  1  0  0  0  0
  2 16  1  0  0  0  0
  2 47  1  0  0  0  0
  3 22  1  0  0  0  0
  3 24  1  0  0  0  0
  4 28  1  0  0  0  0
  4 29  1  0  0  0  0
  5  9  1  0  0  0  0
  5 14  1  0  0  0  0
  5 21  1  0  0  0  0
  6 25  1  0  0  0  0
  6 26  1  0  0  0  0
  6 27  1  0  0  0  0
  7  8  1  6  0  0  0
  7 11  1  0  0  0  0
  7 12  1  0  0  0  0
  8  9  1  6  0  0  0
  8 17  1  0  0  0  0
  8 30  1  0  0  0  0
  9 13  1  0  0  0  0
  9 31  1  6  0  0  0
 10  7  1  6  0  0  0
 10 32  1  0  0  0  0
 11 14  1  0  0  0  0
 11 33  1  0  0  0  0
 11 34  1  0  0  0  0
 12 15  2  0  0  0  0
 12 18  1  0  0  0  0
 13 15  1  0  0  0  0
 13 35  1  0  0  0  0
 13 36  1  0  0  0  0
 14 37  1  0  0  0  0
 14 38  1  0  0  0  0
 15 20  1  0  0  0  0
 16 10  1  1  0  0  0
 16 19  1  0  0  0  0
 16 39  1  0  0  0  0
 17 19  2  0  0  0  0
 17 40  1  0  0  0  0
 18 22  2  0  0  0  0
 19 41  1  0  0  0  0
 20 23  2  0  0  0  0
 20 42  1  0  0  0  0
 21 43  1  0  0  0  0
 21 44  1  0  0  0  0
 21 45  1  0  0  0  0
 22 23  1  0  0  0  0
 23 46  1  0  0  0  0
 24 25  1  0  0  0  0
 24 48  1  0  0  0  0
 24 49  1  0  0  0  0
 25 50  1  0  0  0  0
 25 51  1  0  0  0  0
 26 28  1  0  0  0  0
 26 52  1  0  0  0  0
 26 53  1  0  0  0  0
 27 29  1  0  0  0  0
 27 54  1  0  0  0  0
 27 55  1  0  0  0  0
 28 56  1  0  0  0  0
 28 57  1  0  0  0  0
 29 58  1  0  0  0  0
 29 59  1  0  0  0  0
M  END
