DB09345
 OpenBabel07062211533D

 48 49  0  0  0  0  0  0  0  0999 V2000
   -7.8500   -0.9291   -0.2303 O   0  0  0  0  0  0  0  0  0  0  0  0
   -0.8107    1.8636    0.0819 O   0  0  0  0  0  0  0  0  0  0  0  0
    4.6880    1.3832   -0.0546 O   0  0  0  0  0  0  0  0  0  0  0  0
   -5.0380   -0.4894   -0.2045 N   0  0  0  0  0  0  0  0  0  0  0  0
   -5.9697    0.4573    0.4242 C   0  0  0  0  0  0  0  0  0  0  0  0
   -5.6042   -1.8452   -0.1786 C   0  0  0  0  0  0  0  0  0  0  0  0
   -3.7376   -0.4573    0.4615 C   0  0  0  0  0  0  0  0  0  0  0  0
   -7.3227    0.3972   -0.2790 C   0  0  0  0  0  0  0  0  0  0  0  0
   -6.9653   -1.8508   -0.8686 C   0  0  0  0  0  0  0  0  0  0  0  0
   -2.9088    0.7160   -0.0513 C   0  0  0  0  0  0  0  0  0  0  0  0
   -1.5377    0.7626    0.6093 C   0  0  0  0  0  0  0  0  0  0  0  0
    0.5544    1.7443    0.0478 C   0  0  0  0  0  0  0  0  0  0  0  0
    6.5536   -0.1073   -0.2872 C   0  0  0  0  0  0  0  0  0  0  0  0
    5.2463    0.1678    0.4424 C   0  0  0  0  0  0  0  0  0  0  0  0
    7.2001   -1.4063    0.1853 C   0  0  0  0  0  0  0  0  0  0  0  0
    1.2108    0.9707    1.0052 C   0  0  0  0  0  0  0  0  0  0  0  0
    1.2871    2.3964   -0.9439 C   0  0  0  0  0  0  0  0  0  0  0  0
    3.3326    1.5014   -0.0212 C   0  0  0  0  0  0  0  0  0  0  0  0
    2.5999    0.8493    0.9706 C   0  0  0  0  0  0  0  0  0  0  0  0
    2.6761    2.2749   -0.9785 C   0  0  0  0  0  0  0  0  0  0  0  0
    8.4830   -1.6993   -0.5760 C   0  0  0  0  0  0  0  0  0  0  0  0
   -6.1047    0.2114    1.4858 H   0  0  0  0  0  0  0  0  0  0  0  0
   -5.5968    1.4845    0.3604 H   0  0  0  0  0  0  0  0  0  0  0  0
   -4.9435   -2.5464   -0.7010 H   0  0  0  0  0  0  0  0  0  0  0  0
   -5.7168   -2.1894    0.8578 H   0  0  0  0  0  0  0  0  0  0  0  0
   -3.8378   -0.4258    1.5540 H   0  0  0  0  0  0  0  0  0  0  0  0
   -3.1777   -1.3729    0.2279 H   0  0  0  0  0  0  0  0  0  0  0  0
   -8.0354    1.0565    0.2268 H   0  0  0  0  0  0  0  0  0  0  0  0
   -7.2511    0.7249   -1.3232 H   0  0  0  0  0  0  0  0  0  0  0  0
   -6.8808   -1.6000   -1.9330 H   0  0  0  0  0  0  0  0  0  0  0  0
   -7.4148   -2.8464   -0.7978 H   0  0  0  0  0  0  0  0  0  0  0  0
   -3.4111    1.6733    0.1301 H   0  0  0  0  0  0  0  0  0  0  0  0
   -2.7824    0.6476   -1.1399 H   0  0  0  0  0  0  0  0  0  0  0  0
   -1.6468    0.8907    1.6927 H   0  0  0  0  0  0  0  0  0  0  0  0
   -1.0333   -0.1905    0.4039 H   0  0  0  0  0  0  0  0  0  0  0  0
    7.2396    0.7357   -0.1371 H   0  0  0  0  0  0  0  0  0  0  0  0
    6.3631   -0.1494   -1.3671 H   0  0  0  0  0  0  0  0  0  0  0  0
    4.5765   -0.6840    0.2666 H   0  0  0  0  0  0  0  0  0  0  0  0
    5.4297    0.2726    1.5180 H   0  0  0  0  0  0  0  0  0  0  0  0
    6.5041   -2.2419    0.0470 H   0  0  0  0  0  0  0  0  0  0  0  0
    7.4222   -1.3432    1.2569 H   0  0  0  0  0  0  0  0  0  0  0  0
    0.6808    0.4749    1.8130 H   0  0  0  0  0  0  0  0  0  0  0  0
    0.7808    3.0001   -1.6923 H   0  0  0  0  0  0  0  0  0  0  0  0
    3.0748    0.2655    1.7536 H   0  0  0  0  0  0  0  0  0  0  0  0
    3.2416    2.7850   -1.7536 H   0  0  0  0  0  0  0  0  0  0  0  0
    9.2144   -0.8971   -0.4352 H   0  0  0  0  0  0  0  0  0  0  0  0
    8.9300   -2.6329   -0.2204 H   0  0  0  0  0  0  0  0  0  0  0  0
    8.2881   -1.8028   -1.6482 H   0  0  0  0  0  0  0  0  0  0  0  0
  1  8  1  0  0  0  0
  1  9  1  0  0  0  0
  2 11  1  0  0  0  0
  2 12  1  0  0  0  0
  3 14  1  0  0  0  0
  3 18  1  0  0  0  0
  4  5  1  0  0  0  0
  4  6  1  0  0  0  0
  4  7  1  0  0  0  0
  5  8  1  0  0  0  0
  5 22  1  0  0  0  0
  5 23  1  0  0  0  0
  6  9  1  0  0  0  0
  6 24  1  0  0  0  0
  6 25  1  0  0  0  0
  7 10  1  0  0  0  0
  7 26  1  0  0  0  0
  7 27  1  0  0  0  0
  8 28  1  0  0  0  0
  8 29  1  0  0  0  0
  9 30  1  0  0  0  0
  9 31  1  0  0  0  0
 10 11  1  0  0  0  0
 10 32  1  0  0  0  0
 10 33  1  0  0  0  0
 11 34  1  0  0  0  0
 11 35  1  0  0  0  0
 12 16  2  0  0  0  0
 12 17  1  0  0  0  0
 13 14  1  0  0  0  0
 13 15  1  0  0  0  0
 13 36  1  0  0  0  0
 13 37  1  0  0  0  0
 14 38  1  0  0  0  0
 14 39  1  0  0  0  0
 15 21  1  0  0  0  0
 15 40  1  0  0  0  0
 15 41  1  0  0  0  0
 16 19  1  0  0  0  0
 16 42  1  0  0  0  0
 17 20  2  0  0  0  0
 17 43  1  0  0  0  0
 18 19  2  0  0  0  0
 18 20  1  0  0  0  0
 19 44  1  0  0  0  0
 20 45  1  0  0  0  0
 21 46  1  0  0  0  0
 21 47  1  0  0  0  0
 21 48  1  0  0  0  0
M  END
