DB09084
 OpenBabel07062211533D

 46 48  0  0  0  0  0  0  0  0999 V2000
   -1.4293    1.4286   -0.7616 O   0  0  0  0  0  0  0  0  0  0  0  0
    1.8184    0.5797   -1.1235 N   0  0  0  0  0  0  0  0  0  0  0  0
    0.5141    0.3454   -1.3453 N   0  0  0  0  0  0  0  0  0  0  0  0
   -3.7876   -0.6542    0.7083 N   0  0  0  0  0  0  0  0  0  0  0  0
    2.0688    1.7070   -0.3885 C   0  0  0  0  0  0  0  0  0  0  0  0
    0.8187    2.2487   -0.1115 C   0  0  0  0  0  0  0  0  0  0  0  0
   -3.6175    0.6363   -1.3656 C   0  0  0  0  0  0  0  0  0  0  0  0
    2.7982   -0.3388   -1.6561 C   0  0  0  0  0  0  0  0  0  0  0  0
   -0.0910    1.3628   -0.7284 C   0  0  0  0  0  0  0  0  0  0  0  0
   -4.0916    0.6277    0.0842 C   0  0  0  0  0  0  0  0  0  0  0  0
   -2.1183    0.3882   -1.4647 C   0  0  0  0  0  0  0  0  0  0  0  0
    3.1046   -1.4420   -0.6797 C   0  0  0  0  0  0  0  0  0  0  0  0
    3.2630    2.2851    0.0474 C   0  0  0  0  0  0  0  0  0  0  0  0
    0.7328    3.4324    0.6403 C   0  0  0  0  0  0  0  0  0  0  0  0
    3.1611    3.4627    0.7953 C   0  0  0  0  0  0  0  0  0  0  0  0
    1.9186    4.0285    1.0874 C   0  0  0  0  0  0  0  0  0  0  0  0
   -4.1550   -0.6380    2.1254 C   0  0  0  0  0  0  0  0  0  0  0  0
   -4.4819   -1.7419    0.0167 C   0  0  0  0  0  0  0  0  0  0  0  0
    2.3580   -2.6120   -0.7130 C   0  0  0  0  0  0  0  0  0  0  0  0
    4.1302   -1.2755    0.2411 C   0  0  0  0  0  0  0  0  0  0  0  0
    2.6422   -3.6348    0.1919 C   0  0  0  0  0  0  0  0  0  0  0  0
    4.4144   -2.2983    1.1458 C   0  0  0  0  0  0  0  0  0  0  0  0
    3.6703   -3.4779    1.1213 C   0  0  0  0  0  0  0  0  0  0  0  0
   -4.1697   -0.0691   -1.9944 H   0  0  0  0  0  0  0  0  0  0  0  0
   -3.8323    1.6336   -1.7716 H   0  0  0  0  0  0  0  0  0  0  0  0
    3.7023    0.2226   -1.9181 H   0  0  0  0  0  0  0  0  0  0  0  0
    2.4091   -0.7450   -2.5982 H   0  0  0  0  0  0  0  0  0  0  0  0
   -5.1681    0.8415    0.1141 H   0  0  0  0  0  0  0  0  0  0  0  0
   -3.5961    1.4395    0.6313 H   0  0  0  0  0  0  0  0  0  0  0  0
   -1.8350    0.4197   -2.5246 H   0  0  0  0  0  0  0  0  0  0  0  0
   -1.8535   -0.5958   -1.0603 H   0  0  0  0  0  0  0  0  0  0  0  0
    4.2329    1.8630   -0.1865 H   0  0  0  0  0  0  0  0  0  0  0  0
   -0.2277    3.8815    0.8739 H   0  0  0  0  0  0  0  0  0  0  0  0
    4.0665    3.9478    1.1517 H   0  0  0  0  0  0  0  0  0  0  0  0
    1.8696    4.9450    1.6695 H   0  0  0  0  0  0  0  0  0  0  0  0
   -3.8781   -1.5827    2.6066 H   0  0  0  0  0  0  0  0  0  0  0  0
   -5.2292   -0.4766    2.2722 H   0  0  0  0  0  0  0  0  0  0  0  0
   -3.6111    0.1524    2.6548 H   0  0  0  0  0  0  0  0  0  0  0  0
   -5.5589   -1.5591   -0.0740 H   0  0  0  0  0  0  0  0  0  0  0  0
   -4.3504   -2.6837    0.5635 H   0  0  0  0  0  0  0  0  0  0  0  0
   -4.0663   -1.9333   -0.9770 H   0  0  0  0  0  0  0  0  0  0  0  0
    1.5546   -2.7444   -1.4320 H   0  0  0  0  0  0  0  0  0  0  0  0
    4.7286   -0.3709    0.2659 H   0  0  0  0  0  0  0  0  0  0  0  0
    2.0628   -4.5533    0.1729 H   0  0  0  0  0  0  0  0  0  0  0  0
    5.2170   -2.1778    1.8675 H   0  0  0  0  0  0  0  0  0  0  0  0
    3.8921   -4.2746    1.8254 H   0  0  0  0  0  0  0  0  0  0  0  0
  1  9  1  0  0  0  0
  1 11  1  0  0  0  0
  2  3  1  0  0  0  0
  2  5  2  0  0  0  0
  2  8  1  0  0  0  0
  3  9  1  0  0  0  0
  4 10  1  0  0  0  0
  4 17  1  0  0  0  0
  4 18  1  0  0  0  0
  5  6  1  0  0  0  0
  5 13  1  0  0  0  0
  6  9  2  0  0  0  0
  6 14  1  0  0  0  0
  7 10  1  0  0  0  0
  7 11  1  0  0  0  0
  7 24  1  0  0  0  0
  7 25  1  0  0  0  0
  8 12  1  0  0  0  0
  8 26  1  0  0  0  0
  8 27  1  0  0  0  0
 10 28  1  0  0  0  0
 10 29  1  0  0  0  0
 11 30  1  0  0  0  0
 11 31  1  0  0  0  0
 12 19  2  0  0  0  0
 12 20  1  0  0  0  0
 13 15  2  0  0  0  0
 13 32  1  0  0  0  0
 14 16  2  0  0  0  0
 14 33  1  0  0  0  0
 15 16  1  0  0  0  0
 15 34  1  0  0  0  0
 16 35  1  0  0  0  0
 17 36  1  0  0  0  0
 17 37  1  0  0  0  0
 17 38  1  0  0  0  0
 18 39  1  0  0  0  0
 18 40  1  0  0  0  0
 18 41  1  0  0  0  0
 19 21  1  0  0  0  0
 19 42  1  0  0  0  0
 20 22  2  0  0  0  0
 20 43  1  0  0  0  0
 21 23  2  0  0  0  0
 21 44  1  0  0  0  0
 22 23  1  0  0  0  0
 22 45  1  0  0  0  0
 23 46  1  0  0  0  0
M  END
