DB09042
 OpenBabel07062211533D

 47 50  0  0  1  0  0  0  0  0999 V2000
   -7.9649    1.6570    0.2848 P   0  0  0  0  0  0  0  0  0  0  0  0
    1.2155   -1.1391    2.4199 F   0  0  0  0  0  0  0  0  0  0  0  0
   -5.1594   -1.5947    0.9467 O   0  0  0  0  0  0  0  0  0  0  0  0
   -7.1511    0.2636    0.1513 O   0  0  0  0  0  0  0  0  0  0  0  0
   -3.5003   -1.7054    2.4889 O   0  0  0  0  0  0  0  0  0  0  0  0
   -7.8824    2.2932   -1.1997 O   0  0  0  0  0  0  0  0  0  0  0  0
   -6.9554    2.5841    1.1431 O   0  0  0  0  0  0  0  0  0  0  0  0
   -9.3481    1.5311    0.8532 O   0  0  0  0  0  0  0  0  0  0  0  0
   -3.0575   -1.2157    0.2167 N   0  0  0  0  0  0  0  0  0  0  0  0
    4.4747    0.9281    0.1789 N   0  0  0  0  0  0  0  0  0  0  0  0
    7.2015    1.3263    0.0883 N   0  0  0  0  0  0  0  0  0  0  0  0
    8.4990    1.0165   -0.0445 N   0  0  0  0  0  0  0  0  0  0  0  0
    7.5891   -0.8663   -0.3242 N   0  0  0  0  0  0  0  0  0  0  0  0
    8.7755   -0.2717   -0.2895 N   0  0  0  0  0  0  0  0  0  0  0  0
   -5.2856   -1.1227   -0.4020 C   0  0  2  0  0  0  0  0  0  0  0  0
   -3.8820   -1.2075   -0.9620 C   0  0  0  0  0  0  0  0  0  0  0  0
   -5.8366    0.2964   -0.3768 C   0  0  0  0  0  0  0  0  0  0  0  0
   -1.6443   -1.0467    0.1711 C   0  0  0  0  0  0  0  0  0  0  0  0
   -3.8399   -1.5097    1.3305 C   0  0  0  0  0  0  0  0  0  0  0  0
   -0.8819   -1.1755    1.3360 C   0  0  0  0  0  0  0  0  0  0  0  0
   -1.0093   -0.7517   -1.0392 C   0  0  0  0  0  0  0  0  0  0  0  0
    1.1311   -0.7166    0.0812 C   0  0  0  0  0  0  0  0  0  0  0  0
    0.5026   -1.0110    1.2912 C   0  0  0  0  0  0  0  0  0  0  0  0
    0.3751   -0.5870   -1.0839 C   0  0  0  0  0  0  0  0  0  0  0  0
    2.5672   -0.5454    0.0295 C   0  0  0  0  0  0  0  0  0  0  0  0
    3.4066   -1.6256   -0.2107 C   0  0  0  0  0  0  0  0  0  0  0  0
    3.1429    0.6992    0.2163 C   0  0  0  0  0  0  0  0  0  0  0  0
    4.7825   -1.4301   -0.2566 C   0  0  0  0  0  0  0  0  0  0  0  0
    5.2621   -0.1455   -0.0571 C   0  0  0  0  0  0  0  0  0  0  0  0
    6.6725    0.1150   -0.0952 C   0  0  0  0  0  0  0  0  0  0  0  0
    9.5356    2.0093    0.0688 C   0  0  0  0  0  0  0  0  0  0  0  0
   -5.9729   -1.7859   -0.9384 H   0  0  0  0  0  0  0  0  0  0  0  0
   -3.7292   -2.1566   -1.4885 H   0  0  0  0  0  0  0  0  0  0  0  0
   -3.6612   -0.3717   -1.6319 H   0  0  0  0  0  0  0  0  0  0  0  0
   -5.8629    0.7090   -1.3901 H   0  0  0  0  0  0  0  0  0  0  0  0
   -5.2180    0.9401    0.2571 H   0  0  0  0  0  0  0  0  0  0  0  0
   -1.3044   -1.4009    2.3059 H   0  0  0  0  0  0  0  0  0  0  0  0
   -1.5541   -0.6501   -1.9722 H   0  0  0  0  0  0  0  0  0  0  0  0
    0.8498   -0.3597   -2.0357 H   0  0  0  0  0  0  0  0  0  0  0  0
    3.0058   -2.6245   -0.3643 H   0  0  0  0  0  0  0  0  0  0  0  0
    2.5410    1.5829    0.4076 H   0  0  0  0  0  0  0  0  0  0  0  0
    5.4348   -2.2766   -0.4448 H   0  0  0  0  0  0  0  0  0  0  0  0
   -8.3700    3.1231   -1.3881 H   0  0  0  0  0  0  0  0  0  0  0  0
   -7.2602    3.4676    1.4413 H   0  0  0  0  0  0  0  0  0  0  0  0
    9.8380    2.3012   -0.9395 H   0  0  0  0  0  0  0  0  0  0  0  0
    9.1489    2.8736    0.6146 H   0  0  0  0  0  0  0  0  0  0  0  0
   10.3795    1.5769    0.6119 H   0  0  0  0  0  0  0  0  0  0  0  0
  1  4  1  0  0  0  0
  1  6  1  0  0  0  0
  1  7  1  0  0  0  0
  1  8  2  0  0  0  0
  2 23  1  0  0  0  0
  3 15  1  0  0  0  0
  3 19  1  0  0  0  0
  4 17  1  0  0  0  0
  5 19  2  0  0  0  0
  6 43  1  0  0  0  0
  7 44  1  0  0  0  0
  9 16  1  0  0  0  0
  9 18  1  0  0  0  0
  9 19  1  0  0  0  0
 10 27  2  0  0  0  0
 10 29  1  0  0  0  0
 11 12  1  0  0  0  0
 11 30  2  0  0  0  0
 12 14  1  0  0  0  0
 12 31  1  0  0  0  0
 13 14  2  0  0  0  0
 13 30  1  0  0  0  0
 15 16  1  0  0  0  0
 15 17  1  0  0  0  0
 15 32  1  6  0  0  0
 16 33  1  0  0  0  0
 16 34  1  0  0  0  0
 17 35  1  0  0  0  0
 17 36  1  0  0  0  0
 18 20  2  0  0  0  0
 18 21  1  0  0  0  0
 20 23  1  0  0  0  0
 20 37  1  0  0  0  0
 21 24  2  0  0  0  0
 21 38  1  0  0  0  0
 22 23  2  0  0  0  0
 22 24  1  0  0  0  0
 22 25  1  0  0  0  0
 24 39  1  0  0  0  0
 25 26  2  0  0  0  0
 25 27  1  0  0  0  0
 26 28  1  0  0  0  0
 26 40  1  0  0  0  0
 27 41  1  0  0  0  0
 28 29  2  0  0  0  0
 28 42  1  0  0  0  0
 29 30  1  0  0  0  0
 31 45  1  0  0  0  0
 31 46  1  0  0  0  0
 31 47  1  0  0  0  0
M  END
