DB09394
 OpenBabel07062211533D

  8  7  0  0  0  0  0  0  0  0999 V2000
    0.1644   -0.2825   -0.3966 P   0  0  0  0  0  0  0  0  0  0  0  0
   -0.4030    1.1904   -0.7393 O   0  0  0  0  0  0  0  0  0  0  0  0
   -1.1372   -1.0916    0.1162 O   0  0  0  0  0  0  0  0  0  0  0  0
    1.0729   -0.0860    0.9235 O   0  0  0  0  0  0  0  0  0  0  0  0
    0.8776   -0.9499   -1.5376 O   0  0  0  0  0  0  0  0  0  0  0  0
   -0.8958    1.6827   -0.0486 H   0  0  0  0  0  0  0  0  0  0  0  0
   -1.6647   -0.7226    0.8564 H   0  0  0  0  0  0  0  0  0  0  0  0
    1.9857    0.2595    0.8259 H   0  0  0  0  0  0  0  0  0  0  0  0
  1  2  1  0  0  0  0
  1  3  1  0  0  0  0
  1  4  1  0  0  0  0
  1  5  2  0  0  0  0
  2  6  1  0  0  0  0
  3  7  1  0  0  0  0
  4  8  1  0  0  0  0
M  END
