DB09061
 OpenBabel07062211533D

 53 54  0  0  1  0  0  0  0  0999 V2000
   -1.1399   -0.8010   -1.8026 O   0  0  0  0  0  0  0  0  0  0  0  0
   -0.6758    1.1523    2.5522 O   0  0  0  0  0  0  0  0  0  0  0  0
   -3.3313    0.6447   -0.3291 C   0  0  1  0  0  0  0  0  0  0  0  0
   -2.4048   -0.1124    0.6638 C   0  0  1  0  0  0  0  0  0  0  0  0
   -4.7641    0.1043   -0.2460 C   0  0  0  0  0  0  0  0  0  0  0  0
   -4.8122   -1.3908   -0.5681 C   0  0  0  0  0  0  0  0  0  0  0  0
   -2.6787   -1.6017    0.7059 C   0  0  0  0  0  0  0  0  0  0  0  0
   -0.9335    0.1699    0.3801 C   0  0  0  0  0  0  0  0  0  0  0  0
   -3.7458   -2.1875    0.1357 C   0  0  0  0  0  0  0  0  0  0  0  0
   -3.3338    2.1245   -0.0733 C   0  0  0  0  0  0  0  0  0  0  0  0
   -0.3833   -0.1935   -0.8457 C   0  0  0  0  0  0  0  0  0  0  0  0
   -0.1492    0.7903    1.3485 C   0  0  0  0  0  0  0  0  0  0  0  0
   -3.9452   -3.6741    0.1684 C   0  0  0  0  0  0  0  0  0  0  0  0
   -2.8653    2.9919   -1.2038 C   0  0  0  0  0  0  0  0  0  0  0  0
    1.7522    0.6875   -0.1384 C   0  0  0  0  0  0  0  0  0  0  0  0
    0.9624    0.0656   -1.1055 C   0  0  0  0  0  0  0  0  0  0  0  0
    1.1963    1.0496    1.0886 C   0  0  0  0  0  0  0  0  0  0  0  0
    3.1910    0.9646   -0.4163 C   0  0  0  0  0  0  0  0  0  0  0  0
   -3.7327    2.6407    1.0985 C   0  0  0  0  0  0  0  0  0  0  0  0
    4.1476   -0.1712   -0.0093 C   0  0  0  0  0  0  0  0  0  0  0  0
    5.6198    0.1775   -0.2492 C   0  0  0  0  0  0  0  0  0  0  0  0
    6.5377   -0.9635    0.1910 C   0  0  0  0  0  0  0  0  0  0  0  0
    8.0025   -0.6084   -0.0085 C   0  0  0  0  0  0  0  0  0  0  0  0
   -3.0204    0.4927   -1.3678 H   0  0  0  0  0  0  0  0  0  0  0  0
   -2.6681    0.2175    1.6735 H   0  0  0  0  0  0  0  0  0  0  0  0
   -5.4226    0.6411   -0.9410 H   0  0  0  0  0  0  0  0  0  0  0  0
   -5.1816    0.2551    0.7586 H   0  0  0  0  0  0  0  0  0  0  0  0
   -4.7007   -1.5371   -1.6495 H   0  0  0  0  0  0  0  0  0  0  0  0
   -5.8037   -1.7700   -0.2926 H   0  0  0  0  0  0  0  0  0  0  0  0
   -1.9540   -2.2196    1.2326 H   0  0  0  0  0  0  0  0  0  0  0  0
   -4.8738   -3.9219    0.6926 H   0  0  0  0  0  0  0  0  0  0  0  0
   -3.1256   -4.1903    0.6792 H   0  0  0  0  0  0  0  0  0  0  0  0
   -4.0042   -4.0701   -0.8505 H   0  0  0  0  0  0  0  0  0  0  0  0
   -1.8327    2.7466   -1.4724 H   0  0  0  0  0  0  0  0  0  0  0  0
   -3.4995    2.8449   -2.0842 H   0  0  0  0  0  0  0  0  0  0  0  0
   -2.8966    4.0559   -0.9462 H   0  0  0  0  0  0  0  0  0  0  0  0
    1.3905   -0.2208   -2.0630 H   0  0  0  0  0  0  0  0  0  0  0  0
    1.8074    1.5328    1.8472 H   0  0  0  0  0  0  0  0  0  0  0  0
    3.3217    1.1807   -1.4851 H   0  0  0  0  0  0  0  0  0  0  0  0
    3.4864    1.8879    0.0996 H   0  0  0  0  0  0  0  0  0  0  0  0
   -3.7273    3.7130    1.2668 H   0  0  0  0  0  0  0  0  0  0  0  0
   -4.0765    2.0218    1.9197 H   0  0  0  0  0  0  0  0  0  0  0  0
    3.8907   -1.0804   -0.5677 H   0  0  0  0  0  0  0  0  0  0  0  0
    3.9997   -0.4050    1.0529 H   0  0  0  0  0  0  0  0  0  0  0  0
    5.7779    0.3910   -1.3130 H   0  0  0  0  0  0  0  0  0  0  0  0
    5.8735    1.0890    0.3054 H   0  0  0  0  0  0  0  0  0  0  0  0
   -1.8760   -1.2972   -1.4241 H   0  0  0  0  0  0  0  0  0  0  0  0
   -1.2010    0.4109    2.8966 H   0  0  0  0  0  0  0  0  0  0  0  0
    6.3046   -1.8699   -0.3799 H   0  0  0  0  0  0  0  0  0  0  0  0
    6.3661   -1.1932    1.2491 H   0  0  0  0  0  0  0  0  0  0  0  0
    8.2754    0.2751    0.5773 H   0  0  0  0  0  0  0  0  0  0  0  0
    8.6407   -1.4382    0.3110 H   0  0  0  0  0  0  0  0  0  0  0  0
    8.2159   -0.4017   -1.0621 H   0  0  0  0  0  0  0  0  0  0  0  0
  1 11  1  0  0  0  0
  1 47  1  0  0  0  0
  2 12  1  0  0  0  0
  2 48  1  0  0  0  0
  3  4  1  1  0  0  0
  3  5  1  0  0  0  0
  3 10  1  0  0  0  0
  3 24  1  0  0  0  0
  4  7  1  0  0  0  0
  4  8  1  0  0  0  0
  4 25  1  1  0  0  0
  5  6  1  0  0  0  0
  5 26  1  0  0  0  0
  5 27  1  0  0  0  0
  6  9  1  0  0  0  0
  6 28  1  0  0  0  0
  6 29  1  0  0  0  0
  7  9  2  0  0  0  0
  7 30  1  0  0  0  0
  8 11  2  0  0  0  0
  8 12  1  0  0  0  0
  9 13  1  0  0  0  0
 10 14  1  0  0  0  0
 10 19  2  0  0  0  0
 11 16  1  0  0  0  0
 12 17  2  0  0  0  0
 13 31  1  0  0  0  0
 13 32  1  0  0  0  0
 13 33  1  0  0  0  0
 14 34  1  0  0  0  0
 14 35  1  0  0  0  0
 14 36  1  0  0  0  0
 15 16  2  0  0  0  0
 15 17  1  0  0  0  0
 15 18  1  0  0  0  0
 16 37  1  0  0  0  0
 17 38  1  0  0  0  0
 18 20  1  0  0  0  0
 18 39  1  0  0  0  0
 18 40  1  0  0  0  0
 19 41  1  0  0  0  0
 19 42  1  0  0  0  0
 20 21  1  0  0  0  0
 20 43  1  0  0  0  0
 20 44  1  0  0  0  0
 21 22  1  0  0  0  0
 21 45  1  0  0  0  0
 21 46  1  0  0  0  0
 22 23  1  0  0  0  0
 22 49  1  0  0  0  0
 22 50  1  0  0  0  0
 23 51  1  0  0  0  0
 23 52  1  0  0  0  0
 23 53  1  0  0  0  0
M  END
