DB09063
 OpenBabel07062211533D

 74 77  0  0  0  0  0  0  0  0999 V2000
   -5.7745    2.8870    1.9617 Cl  0  0  0  0  0  0  0  0  0  0  0  0
   -5.5147   -1.2471   -1.0198 S   0  0  0  0  0  0  0  0  0  0  0  0
    2.5211    3.1055    0.5218 O   0  0  0  0  0  0  0  0  0  0  0  0
   -6.0111   -2.4047   -1.7482 O   0  0  0  0  0  0  0  0  0  0  0  0
   -6.4506   -0.2911   -0.4498 O   0  0  0  0  0  0  0  0  0  0  0  0
    6.1354   -2.6090   -0.9313 N   0  0  0  0  0  0  0  0  0  0  0  0
    0.0165    2.5469    1.6764 N   0  0  0  0  0  0  0  0  0  0  0  0
   -4.1678    0.4682    1.1049 N   0  0  0  0  0  0  0  0  0  0  0  0
   -2.0618    1.5049    1.3902 N   0  0  0  0  0  0  0  0  0  0  0  0
   -1.9136    3.7884    2.1457 N   0  0  0  0  0  0  0  0  0  0  0  0
    3.6051   -1.6478    0.1852 C   0  0  0  0  0  0  0  0  0  0  0  0
    4.9282   -1.5798    0.9661 C   0  0  0  0  0  0  0  0  0  0  0  0
    3.8883   -1.6544   -1.3262 C   0  0  0  0  0  0  0  0  0  0  0  0
    5.8920   -2.6754    0.5098 C   0  0  0  0  0  0  0  0  0  0  0  0
    4.8932   -2.7472   -1.6916 C   0  0  0  0  0  0  0  0  0  0  0  0
    2.6439   -0.5453    0.5857 C   0  0  0  0  0  0  0  0  0  0  0  0
    1.4067   -0.8443    1.1562 C   0  0  0  0  0  0  0  0  0  0  0  0
    3.0121    0.7837    0.3756 C   0  0  0  0  0  0  0  0  0  0  0  0
    2.1432    1.8135    0.7363 C   0  0  0  0  0  0  0  0  0  0  0  0
    0.5377    0.1855    1.5168 C   0  0  0  0  0  0  0  0  0  0  0  0
    0.9058    1.5145    1.3070 C   0  0  0  0  0  0  0  0  0  0  0  0
    0.9911   -2.2596    1.3912 C   0  0  0  0  0  0  0  0  0  0  0  0
    2.7965    3.4839   -0.8253 C   0  0  0  0  0  0  0  0  0  0  0  0
   -4.4290   -0.3670   -2.1178 C   0  0  0  0  0  0  0  0  0  0  0  0
   -1.3876    2.6169    1.7407 C   0  0  0  0  0  0  0  0  0  0  0  0
   -4.4669   -1.8014    0.2692 C   0  0  0  0  0  0  0  0  0  0  0  0
    1.8328    4.5840   -1.2431 C   0  0  0  0  0  0  0  0  0  0  0  0
    4.2467    3.9293   -0.9339 C   0  0  0  0  0  0  0  0  0  0  0  0
   -3.9082   -0.9095    1.1845 C   0  0  0  0  0  0  0  0  0  0  0  0
   -5.2162    0.2170   -3.2815 C   0  0  0  0  0  0  0  0  0  0  0  0
   -3.3153   -1.2828   -2.6039 C   0  0  0  0  0  0  0  0  0  0  0  0
   -4.1938   -3.1656    0.3688 C   0  0  0  0  0  0  0  0  0  0  0  0
   -3.4053    1.6070    1.4631 C   0  0  0  0  0  0  0  0  0  0  0  0
   -3.0762   -1.3819    2.1995 C   0  0  0  0  0  0  0  0  0  0  0  0
   -3.3617   -3.6381    1.3839 C   0  0  0  0  0  0  0  0  0  0  0  0
   -2.8027   -2.7461    2.2991 C   0  0  0  0  0  0  0  0  0  0  0  0
   -4.0668    2.7503    1.8627 C   0  0  0  0  0  0  0  0  0  0  0  0
   -3.2616    3.8205    2.1955 C   0  0  0  0  0  0  0  0  0  0  0  0
    3.1753   -2.6294    0.4102 H   0  0  0  0  0  0  0  0  0  0  0  0
    2.9560   -1.8167   -1.8814 H   0  0  0  0  0  0  0  0  0  0  0  0
    4.2831   -0.6853   -1.6572 H   0  0  0  0  0  0  0  0  0  0  0  0
    5.4138   -0.6045    0.8348 H   0  0  0  0  0  0  0  0  0  0  0  0
    4.7350   -1.6893    2.0406 H   0  0  0  0  0  0  0  0  0  0  0  0
    4.4586   -3.7393   -1.5195 H   0  0  0  0  0  0  0  0  0  0  0  0
    5.1232   -2.6877   -2.7610 H   0  0  0  0  0  0  0  0  0  0  0  0
    6.8462   -2.5638    1.0363 H   0  0  0  0  0  0  0  0  0  0  0  0
    5.5008   -3.6645    0.7771 H   0  0  0  0  0  0  0  0  0  0  0  0
    6.5598   -1.7081   -1.1532 H   0  0  0  0  0  0  0  0  0  0  0  0
    3.9786    1.0221   -0.0583 H   0  0  0  0  0  0  0  0  0  0  0  0
   -0.3931   -0.0735    2.0072 H   0  0  0  0  0  0  0  0  0  0  0  0
    0.0153   -2.3140    1.8811 H   0  0  0  0  0  0  0  0  0  0  0  0
    1.6977   -2.7693    2.0547 H   0  0  0  0  0  0  0  0  0  0  0  0
    0.9044   -2.8022    0.4443 H   0  0  0  0  0  0  0  0  0  0  0  0
    0.4616    3.4498    1.8116 H   0  0  0  0  0  0  0  0  0  0  0  0
    2.6442    2.6420   -1.5147 H   0  0  0  0  0  0  0  0  0  0  0  0
   -3.9914    0.4646   -1.5578 H   0  0  0  0  0  0  0  0  0  0  0  0
    1.9228    5.4538   -0.5833 H   0  0  0  0  0  0  0  0  0  0  0  0
    2.0149    4.9047   -2.2734 H   0  0  0  0  0  0  0  0  0  0  0  0
    0.7973    4.2355   -1.1638 H   0  0  0  0  0  0  0  0  0  0  0  0
    4.4460    4.7721   -0.2625 H   0  0  0  0  0  0  0  0  0  0  0  0
    4.4939    4.2319   -1.9560 H   0  0  0  0  0  0  0  0  0  0  0  0
    4.9278    3.1257   -0.6363 H   0  0  0  0  0  0  0  0  0  0  0  0
   -2.6685   -0.7542   -3.3128 H   0  0  0  0  0  0  0  0  0  0  0  0
   -2.6764   -1.6218   -1.7833 H   0  0  0  0  0  0  0  0  0  0  0  0
   -3.7082   -2.1696   -3.1124 H   0  0  0  0  0  0  0  0  0  0  0  0
   -4.5609    0.7900   -3.9458 H   0  0  0  0  0  0  0  0  0  0  0  0
   -6.0029    0.8911   -2.9265 H   0  0  0  0  0  0  0  0  0  0  0  0
   -5.6966   -0.5679   -3.8757 H   0  0  0  0  0  0  0  0  0  0  0  0
   -4.6107   -3.8854   -0.3293 H   0  0  0  0  0  0  0  0  0  0  0  0
   -5.0263    0.7144    0.6228 H   0  0  0  0  0  0  0  0  0  0  0  0
   -2.6444   -0.7125    2.9386 H   0  0  0  0  0  0  0  0  0  0  0  0
   -3.1491   -4.7002    1.4622 H   0  0  0  0  0  0  0  0  0  0  0  0
   -2.1603   -3.1150    3.0933 H   0  0  0  0  0  0  0  0  0  0  0  0
   -3.6785    4.7678    2.5234 H   0  0  0  0  0  0  0  0  0  0  0  0
  1 37  1  0  0  0  0
  2  4  2  0  0  0  0
  2  5  2  0  0  0  0
  2 24  1  0  0  0  0
  2 26  1  0  0  0  0
  3 19  1  0  0  0  0
  3 23  1  0  0  0  0
  6 14  1  0  0  0  0
  6 15  1  0  0  0  0
  6 48  1  0  0  0  0
  7 21  1  0  0  0  0
  7 25  1  0  0  0  0
  7 54  1  0  0  0  0
  8 29  1  0  0  0  0
  8 33  1  0  0  0  0
  8 70  1  0  0  0  0
  9 25  2  0  0  0  0
  9 33  1  0  0  0  0
 10 25  1  0  0  0  0
 10 38  2  0  0  0  0
 11 12  1  0  0  0  0
 11 13  1  0  0  0  0
 11 16  1  0  0  0  0
 11 39  1  0  0  0  0
 12 14  1  0  0  0  0
 12 42  1  0  0  0  0
 12 43  1  0  0  0  0
 13 15  1  0  0  0  0
 13 40  1  0  0  0  0
 13 41  1  0  0  0  0
 14 46  1  0  0  0  0
 14 47  1  0  0  0  0
 15 44  1  0  0  0  0
 15 45  1  0  0  0  0
 16 17  2  0  0  0  0
 16 18  1  0  0  0  0
 17 20  1  0  0  0  0
 17 22  1  0  0  0  0
 18 19  2  0  0  0  0
 18 49  1  0  0  0  0
 19 21  1  0  0  0  0
 20 21  2  0  0  0  0
 20 50  1  0  0  0  0
 22 51  1  0  0  0  0
 22 52  1  0  0  0  0
 22 53  1  0  0  0  0
 23 27  1  0  0  0  0
 23 28  1  0  0  0  0
 23 55  1  0  0  0  0
 24 30  1  0  0  0  0
 24 31  1  0  0  0  0
 24 56  1  0  0  0  0
 26 29  2  0  0  0  0
 26 32  1  0  0  0  0
 27 57  1  0  0  0  0
 27 58  1  0  0  0  0
 27 59  1  0  0  0  0
 28 60  1  0  0  0  0
 28 61  1  0  0  0  0
 28 62  1  0  0  0  0
 29 34  1  0  0  0  0
 30 66  1  0  0  0  0
 30 67  1  0  0  0  0
 30 68  1  0  0  0  0
 31 63  1  0  0  0  0
 31 64  1  0  0  0  0
 31 65  1  0  0  0  0
 32 35  2  0  0  0  0
 32 69  1  0  0  0  0
 33 37  2  0  0  0  0
 34 36  2  0  0  0  0
 34 71  1  0  0  0  0
 35 36  1  0  0  0  0
 35 72  1  0  0  0  0
 36 73  1  0  0  0  0
 37 38  1  0  0  0  0
 38 74  1  0  0  0  0
M  END
