DB09118
 OpenBabel07062211533D

 35 36  0  0  1  0  0  0  0  0999 V2000
    2.4481    0.8639    1.9438 O   0  0  0  0  0  0  0  0  0  0  0  0
   -4.1456   -1.8801    0.1602 O   0  0  0  0  0  0  0  0  0  0  0  0
   -5.7363   -0.0874   -0.0910 O   0  0  0  0  0  0  0  0  0  0  0  0
    3.0178   -0.2727   -0.1600 C   0  0  0  0  0  0  0  0  0  0  0  0
    2.0831    0.7462    0.5664 C   0  0  1  0  0  0  0  0  0  0  0  0
    4.4884    0.1699   -0.0004 C   0  0  0  0  0  0  0  0  0  0  0  0
    2.8722   -1.6754    0.4623 C   0  0  0  0  0  0  0  0  0  0  0  0
    2.7127   -0.3607   -1.6684 C   0  0  0  0  0  0  0  0  0  0  0  0
    0.6184    0.3889    0.5418 C   0  0  0  0  0  0  0  0  0  0  0  0
   -0.3290    1.1971    0.0398 C   0  0  0  0  0  0  0  0  0  0  0  0
   -1.7688    0.8929    0.0017 C   0  0  0  0  0  0  0  0  0  0  0  0
   -2.1842   -0.4275    0.1118 C   0  0  0  0  0  0  0  0  0  0  0  0
   -3.5430   -0.6630    0.0707 C   0  0  0  0  0  0  0  0  0  0  0  0
   -2.6802    1.9423   -0.1444 C   0  0  0  0  0  0  0  0  0  0  0  0
   -4.4515    0.3606   -0.0729 C   0  0  0  0  0  0  0  0  0  0  0  0
   -4.0511    1.6763   -0.1831 C   0  0  0  0  0  0  0  0  0  0  0  0
   -5.5351   -1.5076    0.0576 C   0  0  0  0  0  0  0  0  0  0  0  0
    2.2243    1.7381    0.1169 H   0  0  0  0  0  0  0  0  0  0  0  0
    4.8114    0.1428    1.0458 H   0  0  0  0  0  0  0  0  0  0  0  0
    4.6347    1.1896   -0.3737 H   0  0  0  0  0  0  0  0  0  0  0  0
    5.1624   -0.4879   -0.5615 H   0  0  0  0  0  0  0  0  0  0  0  0
    3.5996   -2.3707    0.0266 H   0  0  0  0  0  0  0  0  0  0  0  0
    3.0462   -1.6596    1.5437 H   0  0  0  0  0  0  0  0  0  0  0  0
    1.8807   -2.1035    0.2830 H   0  0  0  0  0  0  0  0  0  0  0  0
    1.6964   -0.7258   -1.8517 H   0  0  0  0  0  0  0  0  0  0  0  0
    3.4027   -1.0452   -2.1746 H   0  0  0  0  0  0  0  0  0  0  0  0
    2.8065    0.6216   -2.1444 H   0  0  0  0  0  0  0  0  0  0  0  0
    0.3534   -0.5528    1.0124 H   0  0  0  0  0  0  0  0  0  0  0  0
   -0.0376    2.1561   -0.3826 H   0  0  0  0  0  0  0  0  0  0  0  0
    3.2509    1.4098    1.9916 H   0  0  0  0  0  0  0  0  0  0  0  0
   -1.5076   -1.2687    0.2049 H   0  0  0  0  0  0  0  0  0  0  0  0
   -2.3422    2.9724   -0.2283 H   0  0  0  0  0  0  0  0  0  0  0  0
   -4.7700    2.4798   -0.2961 H   0  0  0  0  0  0  0  0  0  0  0  0
   -6.0560   -1.8433    0.9616 H   0  0  0  0  0  0  0  0  0  0  0  0
   -5.9717   -2.0165   -0.8095 H   0  0  0  0  0  0  0  0  0  0  0  0
  1  5  1  0  0  0  0
  1 30  1  0  0  0  0
  2 13  1  0  0  0  0
  2 17  1  0  0  0  0
  3 15  1  0  0  0  0
  3 17  1  0  0  0  0
  4  5  1  0  0  0  0
  4  6  1  0  0  0  0
  4  7  1  0  0  0  0
  4  8  1  0  0  0  0
  5  9  1  0  0  0  0
  5 18  1  6  0  0  0
  6 19  1  0  0  0  0
  6 20  1  0  0  0  0
  6 21  1  0  0  0  0
  7 22  1  0  0  0  0
  7 23  1  0  0  0  0
  7 24  1  0  0  0  0
  8 25  1  0  0  0  0
  8 26  1  0  0  0  0
  8 27  1  0  0  0  0
  9 10  2  0  0  0  0
  9 28  1  0  0  0  0
 10 11  1  0  0  0  0
 10 29  1  0  0  0  0
 11 12  2  0  0  0  0
 11 14  1  0  0  0  0
 12 13  1  0  0  0  0
 12 31  1  0  0  0  0
 13 15  2  0  0  0  0
 14 16  2  0  0  0  0
 14 32  1  0  0  0  0
 15 16  1  0  0  0  0
 16 33  1  0  0  0  0
 17 34  1  0  0  0  0
 17 35  1  0  0  0  0
M  END
