DB09080
 OpenBabel07062211533D

 54 56  0  0  1  0  0  0  0  0999 V2000
   -2.5798   -1.2638    2.8066 O   0  0  0  0  0  0  0  0  0  0  0  0
   -4.0570    1.6077    0.8619 O   0  0  0  0  0  0  0  0  0  0  0  0
   -4.3183   -3.3066   -1.6297 O   0  0  0  0  0  0  0  0  0  0  0  0
    7.3221   -0.3572   -0.1735 O   0  0  0  0  0  0  0  0  0  0  0  0
   -6.6738    3.3559   -0.9145 O   0  0  0  0  0  0  0  0  0  0  0  0
   -0.5043    0.2641    0.1173 N   0  0  0  0  0  0  0  0  0  0  0  0
   -5.9527    1.1905   -1.1952 N   0  0  0  0  0  0  0  0  0  0  0  0
    0.8542    0.0150   -0.3403 C   0  0  0  0  0  0  0  0  0  0  0  0
    1.8082    0.2407    0.8623 C   0  0  0  0  0  0  0  0  0  0  0  0
   -0.8523   -0.6299    1.2194 C   0  0  0  0  0  0  0  0  0  0  0  0
    1.1298    0.9894   -1.4937 C   0  0  0  0  0  0  0  0  0  0  0  0
    0.8999   -1.4291   -0.8576 C   0  0  0  0  0  0  0  0  0  0  0  0
   -2.2927   -0.3873    1.7097 C   0  0  1  0  0  0  0  0  0  0  0  0
    3.2854    0.0810    0.5851 C   0  0  0  0  0  0  0  0  0  0  0  0
   -3.3006   -0.6143    0.6310 C   0  0  0  0  0  0  0  0  0  0  0  0
   -4.1844    0.3944    0.2463 C   0  0  0  0  0  0  0  0  0  0  0  0
    3.8724   -1.1637    0.7393 C   0  0  0  0  0  0  0  0  0  0  0  0
    4.0221    1.1821    0.1818 C   0  0  0  0  0  0  0  0  0  0  0  0
   -3.3521   -1.8598    0.0041 C   0  0  0  0  0  0  0  0  0  0  0  0
   -5.1032    0.1616   -0.7757 C   0  0  0  0  0  0  0  0  0  0  0  0
   -4.2753   -2.0922   -1.0159 C   0  0  0  0  0  0  0  0  0  0  0  0
   -5.1493   -1.0799   -1.4127 C   0  0  0  0  0  0  0  0  0  0  0  0
    5.2354   -1.3117    0.4830 C   0  0  0  0  0  0  0  0  0  0  0  0
    5.3852    1.0343   -0.0746 C   0  0  0  0  0  0  0  0  0  0  0  0
   -5.1980    2.4368    0.7499 C   0  0  0  0  0  0  0  0  0  0  0  0
    5.9918   -0.2126    0.0760 C   0  0  0  0  0  0  0  0  0  0  0  0
   -5.9952    2.4008   -0.5426 C   0  0  0  0  0  0  0  0  0  0  0  0
    8.0357    0.8073   -0.5860 C   0  0  0  0  0  0  0  0  0  0  0  0
    1.6153   -0.4578    1.6835 H   0  0  0  0  0  0  0  0  0  0  0  0
    1.6439    1.2411    1.2890 H   0  0  0  0  0  0  0  0  0  0  0  0
   -0.6071    1.2326    0.4198 H   0  0  0  0  0  0  0  0  0  0  0  0
   -0.2440   -0.4568    2.1120 H   0  0  0  0  0  0  0  0  0  0  0  0
   -0.7480   -1.6911    0.9783 H   0  0  0  0  0  0  0  0  0  0  0  0
    2.1012    0.7987   -1.9619 H   0  0  0  0  0  0  0  0  0  0  0  0
    0.3741    0.8933   -2.2833 H   0  0  0  0  0  0  0  0  0  0  0  0
    1.1186    2.0308   -1.1516 H   0  0  0  0  0  0  0  0  0  0  0  0
    1.7921   -1.5842   -1.4771 H   0  0  0  0  0  0  0  0  0  0  0  0
    0.0394   -1.6622   -1.4973 H   0  0  0  0  0  0  0  0  0  0  0  0
    0.9534   -2.1790   -0.0619 H   0  0  0  0  0  0  0  0  0  0  0  0
   -2.3463    0.6275    2.1189 H   0  0  0  0  0  0  0  0  0  0  0  0
    3.2950   -2.0268    1.0575 H   0  0  0  0  0  0  0  0  0  0  0  0
    3.5592    2.1578    0.0640 H   0  0  0  0  0  0  0  0  0  0  0  0
   -2.6828   -2.6607    0.3079 H   0  0  0  0  0  0  0  0  0  0  0  0
   -3.5288   -1.1927    3.0082 H   0  0  0  0  0  0  0  0  0  0  0  0
   -5.8592   -1.2631   -2.2156 H   0  0  0  0  0  0  0  0  0  0  0  0
    5.7026   -2.2854    0.6024 H   0  0  0  0  0  0  0  0  0  0  0  0
    5.9130    1.9290   -0.3867 H   0  0  0  0  0  0  0  0  0  0  0  0
   -6.5378    1.0414   -2.0119 H   0  0  0  0  0  0  0  0  0  0  0  0
   -4.8587    3.4681    0.8971 H   0  0  0  0  0  0  0  0  0  0  0  0
   -5.8832    2.1977    1.5723 H   0  0  0  0  0  0  0  0  0  0  0  0
   -3.6441   -3.8850   -1.2337 H   0  0  0  0  0  0  0  0  0  0  0  0
    9.0780    0.5100   -0.7405 H   0  0  0  0  0  0  0  0  0  0  0  0
    7.6662    1.1871   -1.5446 H   0  0  0  0  0  0  0  0  0  0  0  0
    8.0350    1.5768    0.1935 H   0  0  0  0  0  0  0  0  0  0  0  0
  1 13  1  0  0  0  0
  1 44  1  0  0  0  0
  2 16  1  0  0  0  0
  2 25  1  0  0  0  0
  3 21  1  0  0  0  0
  3 51  1  0  0  0  0
  4 26  1  0  0  0  0
  4 28  1  0  0  0  0
  5 27  2  0  0  0  0
  6  8  1  0  0  0  0
  6 10  1  0  0  0  0
  6 31  1  0  0  0  0
  7 20  1  0  0  0  0
  7 27  1  0  0  0  0
  7 48  1  0  0  0  0
  8  9  1  0  0  0  0
  8 11  1  0  0  0  0
  8 12  1  0  0  0  0
  9 14  1  0  0  0  0
  9 29  1  0  0  0  0
  9 30  1  0  0  0  0
 10 13  1  0  0  0  0
 10 32  1  0  0  0  0
 10 33  1  0  0  0  0
 11 34  1  0  0  0  0
 11 35  1  0  0  0  0
 11 36  1  0  0  0  0
 12 37  1  0  0  0  0
 12 38  1  0  0  0  0
 12 39  1  0  0  0  0
 13 15  1  0  0  0  0
 13 40  1  1  0  0  0
 14 17  2  0  0  0  0
 14 18  1  0  0  0  0
 15 16  2  0  0  0  0
 15 19  1  0  0  0  0
 16 20  1  0  0  0  0
 17 23  1  0  0  0  0
 17 41  1  0  0  0  0
 18 24  2  0  0  0  0
 18 42  1  0  0  0  0
 19 21  2  0  0  0  0
 19 43  1  0  0  0  0
 20 22  2  0  0  0  0
 21 22  1  0  0  0  0
 22 45  1  0  0  0  0
 23 26  2  0  0  0  0
 23 46  1  0  0  0  0
 24 26  1  0  0  0  0
 24 47  1  0  0  0  0
 25 27  1  0  0  0  0
 25 49  1  0  0  0  0
 25 50  1  0  0  0  0
 28 52  1  0  0  0  0
 28 53  1  0  0  0  0
 28 54  1  0  0  0  0
M  END
