DB09496
 OpenBabel07062211533D

 47 47  0  0  1  0  0  0  0  0999 V2000
    0.3711   -0.6624   -0.0061 O   0  0  0  0  0  0  0  0  0  0  0  0
   -0.4731   -2.7213   -0.6275 O   0  0  0  0  0  0  0  0  0  0  0  0
   -8.2156    0.5401    0.5109 O   0  0  0  0  0  0  0  0  0  0  0  0
    2.7084   -0.0247    0.1584 C   0  0  1  0  0  0  0  0  0  0  0  0
    4.1326   -0.6185    0.1922 C   0  0  0  0  0  0  0  0  0  0  0  0
    2.5561    1.1998   -0.7715 C   0  0  0  0  0  0  0  0  0  0  0  0
    5.2011    0.3764    0.6566 C   0  0  0  0  0  0  0  0  0  0  0  0
    1.7002   -1.1380   -0.1702 C   0  0  0  0  0  0  0  0  0  0  0  0
    6.6123   -0.2177    0.6703 C   0  0  0  0  0  0  0  0  0  0  0  0
    2.8785    0.9434   -2.2372 C   0  0  0  0  0  0  0  0  0  0  0  0
    7.6814    0.7726    1.1058 C   0  0  0  0  0  0  0  0  0  0  0  0
   -0.6198   -1.5635   -0.2698 C   0  0  0  0  0  0  0  0  0  0  0  0
   -1.9202   -0.8913   -0.0473 C   0  0  0  0  0  0  0  0  0  0  0  0
   -3.0581   -1.5727   -0.2431 C   0  0  0  0  0  0  0  0  0  0  0  0
   -4.4093   -1.0191   -0.0456 C   0  0  0  0  0  0  0  0  0  0  0  0
   -4.6033    0.3623   -0.0398 C   0  0  0  0  0  0  0  0  0  0  0  0
   -5.4946   -1.8764    0.1354 C   0  0  0  0  0  0  0  0  0  0  0  0
   -5.8823    0.8863    0.1472 C   0  0  0  0  0  0  0  0  0  0  0  0
   -6.7737   -1.3525    0.3224 C   0  0  0  0  0  0  0  0  0  0  0  0
   -6.9675    0.0288    0.3285 C   0  0  0  0  0  0  0  0  0  0  0  0
   -8.3422    1.9613    0.5058 C   0  0  0  0  0  0  0  0  0  0  0  0
    2.4711    0.3340    1.1701 H   0  0  0  0  0  0  0  0  0  0  0  0
    4.4001   -1.0120   -0.7958 H   0  0  0  0  0  0  0  0  0  0  0  0
    4.1446   -1.4771    0.8762 H   0  0  0  0  0  0  0  0  0  0  0  0
    3.1845    2.0212   -0.4091 H   0  0  0  0  0  0  0  0  0  0  0  0
    1.5263    1.5728   -0.7066 H   0  0  0  0  0  0  0  0  0  0  0  0
    4.9490    0.7379    1.6610 H   0  0  0  0  0  0  0  0  0  0  0  0
    5.2116    1.2494   -0.0045 H   0  0  0  0  0  0  0  0  0  0  0  0
    1.8517   -1.9792    0.5179 H   0  0  0  0  0  0  0  0  0  0  0  0
    1.8416   -1.5063   -1.1927 H   0  0  0  0  0  0  0  0  0  0  0  0
    6.6351   -1.0831    1.3432 H   0  0  0  0  0  0  0  0  0  0  0  0
    6.8608   -0.5873   -0.3317 H   0  0  0  0  0  0  0  0  0  0  0  0
    2.2230    0.1824   -2.6690 H   0  0  0  0  0  0  0  0  0  0  0  0
    3.9170    0.6285   -2.3726 H   0  0  0  0  0  0  0  0  0  0  0  0
    2.7367    1.8639   -2.8135 H   0  0  0  0  0  0  0  0  0  0  0  0
    7.7141    1.6336    0.4307 H   0  0  0  0  0  0  0  0  0  0  0  0
    7.4853    1.1377    2.1189 H   0  0  0  0  0  0  0  0  0  0  0  0
    8.6667    0.2962    1.0992 H   0  0  0  0  0  0  0  0  0  0  0  0
   -1.8910    0.1381    0.2904 H   0  0  0  0  0  0  0  0  0  0  0  0
   -3.0253   -2.6132   -0.5579 H   0  0  0  0  0  0  0  0  0  0  0  0
   -3.7912    1.0661   -0.1972 H   0  0  0  0  0  0  0  0  0  0  0  0
   -5.3621   -2.9557    0.1351 H   0  0  0  0  0  0  0  0  0  0  0  0
   -5.9629    1.9679    0.1363 H   0  0  0  0  0  0  0  0  0  0  0  0
   -7.6153   -2.0251    0.4633 H   0  0  0  0  0  0  0  0  0  0  0  0
   -7.7876    2.4179    1.3325 H   0  0  0  0  0  0  0  0  0  0  0  0
   -8.0653    2.3864   -0.4649 H   0  0  0  0  0  0  0  0  0  0  0  0
   -9.4008    2.1920    0.6653 H   0  0  0  0  0  0  0  0  0  0  0  0
  1  8  1  0  0  0  0
  1 12  1  0  0  0  0
  2 12  2  0  0  0  0
  3 20  1  0  0  0  0
  3 21  1  0  0  0  0
  4  5  1  0  0  0  0
  4  6  1  0  0  0  0
  4  8  1  0  0  0  0
  4 22  1  1  0  0  0
  5  7  1  0  0  0  0
  5 23  1  0  0  0  0
  5 24  1  0  0  0  0
  6 10  1  0  0  0  0
  6 25  1  0  0  0  0
  6 26  1  0  0  0  0
  7  9  1  0  0  0  0
  7 27  1  0  0  0  0
  7 28  1  0  0  0  0
  8 29  1  0  0  0  0
  8 30  1  0  0  0  0
  9 11  1  0  0  0  0
  9 31  1  0  0  0  0
  9 32  1  0  0  0  0
 10 33  1  0  0  0  0
 10 34  1  0  0  0  0
 10 35  1  0  0  0  0
 11 36  1  0  0  0  0
 11 37  1  0  0  0  0
 11 38  1  0  0  0  0
 12 13  1  0  0  0  0
 13 14  2  0  0  0  0
 13 39  1  0  0  0  0
 14 15  1  0  0  0  0
 14 40  1  0  0  0  0
 15 16  2  0  0  0  0
 15 17  1  0  0  0  0
 16 18  1  0  0  0  0
 16 41  1  0  0  0  0
 17 19  2  0  0  0  0
 17 42  1  0  0  0  0
 18 20  2  0  0  0  0
 18 43  1  0  0  0  0
 19 20  1  0  0  0  0
 19 44  1  0  0  0  0
 21 45  1  0  0  0  0
 21 46  1  0  0  0  0
 21 47  1  0  0  0  0
M  END
