DB11859
 OpenBabel07062211533D

 57 60  0  0  1  0  0  0  0  0999 V2000
   -4.9848    0.3673   -1.9347 O   0  0  0  0  0  0  0  0  0  0  0  0
    5.5991    0.0982    0.9028 O   0  0  0  0  0  0  0  0  0  0  0  0
   -0.5643    0.3316   -0.2329 C   0  0  1  0  0  0  0  0  0  0  0  0
    0.1419   -1.0081    0.1559 C   0  0  2  0  0  0  0  0  0  0  0  0
    1.5651   -0.9924   -0.4132 C   0  0  1  0  0  0  0  0  0  0  0  0
    2.4151    0.1812    0.1212 C   0  0  2  0  0  0  0  0  0  0  0  0
   -2.0558    0.3765    0.2687 C   0  0  2  0  0  0  0  0  0  0  0  0
   -2.7827   -0.8750   -0.3203 C   0  0  1  0  0  0  0  0  0  0  0  0
    0.2836    1.5697    0.1607 C   0  0  0  0  0  0  0  0  0  0  0  0
    1.7433    1.4880   -0.3219 C   0  0  0  0  0  0  0  0  0  0  0  0
   -0.6510   -2.2233   -0.3464 C   0  0  0  0  0  0  0  0  0  0  0  0
    3.7508   -0.1367   -0.5866 C   0  0  2  0  0  0  0  0  0  0  0  0
    2.4623   -2.2066   -0.1982 C   0  0  0  0  0  0  0  0  0  0  0  0
   -2.1123   -2.1896    0.0958 C   0  0  0  0  0  0  0  0  0  0  0  0
   -2.7796    1.6410   -0.2752 C   0  0  0  0  0  0  0  0  0  0  0  0
    3.8771   -1.6719   -0.4832 C   0  0  0  0  0  0  0  0  0  0  0  0
   -4.2899   -0.8932   -0.0134 C   0  0  0  0  0  0  0  0  0  0  0  0
    2.5920    0.1778    1.6627 C   0  0  0  0  0  0  0  0  0  0  0  0
   -2.1137    0.4083    1.8178 C   0  0  0  0  0  0  0  0  0  0  0  0
   -4.2906    1.6458   -0.0099 C   0  0  0  0  0  0  0  0  0  0  0  0
   -4.9817    0.3781   -0.5072 C   0  0  1  0  0  0  0  0  0  0  0  0
    4.9460    0.5710   -0.0263 C   0  0  0  0  0  0  0  0  0  0  0  0
    5.3104    1.8873   -0.6577 C   0  0  0  0  0  0  0  0  0  0  0  0
   -0.6083    0.3498   -1.3337 H   0  0  0  0  0  0  0  0  0  0  0  0
    0.1999   -1.0917    1.2457 H   0  0  0  0  0  0  0  0  0  0  0  0
    1.4651   -0.8784   -1.5060 H   0  0  0  0  0  0  0  0  0  0  0  0
   -2.6917   -0.8196   -1.4163 H   0  0  0  0  0  0  0  0  0  0  0  0
    0.2734    1.7114    1.2456 H   0  0  0  0  0  0  0  0  0  0  0  0
   -0.1566    2.4750   -0.2720 H   0  0  0  0  0  0  0  0  0  0  0  0
    1.7558    1.5671   -1.4166 H   0  0  0  0  0  0  0  0  0  0  0  0
    2.2921    2.3562    0.0593 H   0  0  0  0  0  0  0  0  0  0  0  0
   -0.1930   -3.1495    0.0199 H   0  0  0  0  0  0  0  0  0  0  0  0
   -0.6106   -2.2646   -1.4425 H   0  0  0  0  0  0  0  0  0  0  0  0
    3.6830    0.1144   -1.6542 H   0  0  0  0  0  0  0  0  0  0  0  0
    2.2070   -3.0321   -0.8703 H   0  0  0  0  0  0  0  0  0  0  0  0
    2.3921   -2.5813    0.8289 H   0  0  0  0  0  0  0  0  0  0  0  0
   -2.6368   -3.0362   -0.3640 H   0  0  0  0  0  0  0  0  0  0  0  0
   -2.1799   -2.3363    1.1797 H   0  0  0  0  0  0  0  0  0  0  0  0
   -2.6130    1.7202   -1.3576 H   0  0  0  0  0  0  0  0  0  0  0  0
   -2.3558    2.5487    0.1703 H   0  0  0  0  0  0  0  0  0  0  0  0
    4.5656   -2.0124    0.2971 H   0  0  0  0  0  0  0  0  0  0  0  0
    4.2525   -2.0762   -1.4308 H   0  0  0  0  0  0  0  0  0  0  0  0
   -4.7406   -1.7611   -0.5118 H   0  0  0  0  0  0  0  0  0  0  0  0
   -4.4631   -1.0201    1.0608 H   0  0  0  0  0  0  0  0  0  0  0  0
    3.1194   -0.7109    2.0235 H   0  0  0  0  0  0  0  0  0  0  0  0
    3.1674    1.0523    1.9881 H   0  0  0  0  0  0  0  0  0  0  0  0
    1.6395    0.2176    2.1976 H   0  0  0  0  0  0  0  0  0  0  0  0
   -1.5636   -0.4156    2.2786 H   0  0  0  0  0  0  0  0  0  0  0  0
   -1.6936    1.3400    2.2108 H   0  0  0  0  0  0  0  0  0  0  0  0
   -3.1369    0.3476    2.1983 H   0  0  0  0  0  0  0  0  0  0  0  0
   -4.4777    1.7678    1.0629 H   0  0  0  0  0  0  0  0  0  0  0  0
   -4.7226    2.5232   -0.5065 H   0  0  0  0  0  0  0  0  0  0  0  0
   -6.0282    0.3719   -0.1830 H   0  0  0  0  0  0  0  0  0  0  0  0
    5.4679    1.7522   -1.7308 H   0  0  0  0  0  0  0  0  0  0  0  0
    4.5236    2.6219   -0.4806 H   0  0  0  0  0  0  0  0  0  0  0  0
    6.2401    2.2579   -0.2159 H   0  0  0  0  0  0  0  0  0  0  0  0
   -5.4527    1.1658   -2.2331 H   0  0  0  0  0  0  0  0  0  0  0  0
  1 21  1  0  0  0  0
  1 57  1  0  0  0  0
  2 22  2  0  0  0  0
  3  4  1  1  0  0  0
  3  9  1  0  0  0  0
  3 24  1  0  0  0  0
  4  5  1  6  0  0  0
  4 11  1  0  0  0  0
  4 25  1  0  0  0  0
  5  6  1  1  0  0  0
  5 13  1  0  0  0  0
  5 26  1  0  0  0  0
  6 10  1  0  0  0  0
  6 12  1  6  0  0  0
  6 18  1  0  0  0  0
  7  3  1  6  0  0  0
  7 15  1  0  0  0  0
  7 19  1  0  0  0  0
  8  7  1  1  0  0  0
  8 14  1  0  0  0  0
  8 17  1  0  0  0  0
  8 27  1  0  0  0  0
  9 10  1  0  0  0  0
  9 28  1  0  0  0  0
  9 29  1  0  0  0  0
 10 30  1  0  0  0  0
 10 31  1  0  0  0  0
 11 14  1  0  0  0  0
 11 32  1  0  0  0  0
 11 33  1  0  0  0  0
 12 16  1  0  0  0  0
 12 22  1  0  0  0  0
 12 34  1  6  0  0  0
 13 16  1  0  0  0  0
 13 35  1  0  0  0  0
 13 36  1  0  0  0  0
 14 37  1  0  0  0  0
 14 38  1  0  0  0  0
 15 20  1  0  0  0  0
 15 39  1  0  0  0  0
 15 40  1  0  0  0  0
 16 41  1  0  0  0  0
 16 42  1  0  0  0  0
 17 21  1  0  0  0  0
 17 43  1  0  0  0  0
 17 44  1  0  0  0  0
 18 45  1  0  0  0  0
 18 46  1  0  0  0  0
 18 47  1  0  0  0  0
 19 48  1  0  0  0  0
 19 49  1  0  0  0  0
 19 50  1  0  0  0  0
 20 21  1  0  0  0  0
 20 51  1  0  0  0  0
 20 52  1  0  0  0  0
 21 53  1  1  0  0  0
 22 23  1  0  0  0  0
 23 54  1  0  0  0  0
 23 55  1  0  0  0  0
 23 56  1  0  0  0  0
M  END
