DB11201
 OpenBabel07062211533D

 44 45  0  0  1  0  0  0  0  0999 V2000
    0.7999   -0.1371   -0.1638 O   0  0  0  0  0  0  0  0  0  0  0  0
    1.5009   -1.1167    1.7979 O   0  0  0  0  0  0  0  0  0  0  0  0
    3.9528   -2.2606    1.3707 O   0  0  0  0  0  0  0  0  0  0  0  0
   -1.4105    0.8185   -0.3823 C   0  0  1  0  0  0  0  0  0  0  0  0
   -0.5619   -0.3140    0.2188 C   0  0  1  0  0  0  0  0  0  0  0  0
   -2.9019    0.5887   -0.1053 C   0  0  0  0  0  0  0  0  0  0  0  0
   -2.5237   -1.9114    0.0214 C   0  0  1  0  0  0  0  0  0  0  0  0
   -1.0349   -1.6879   -0.2613 C   0  0  0  0  0  0  0  0  0  0  0  0
   -3.3647   -0.7839   -0.5887 C   0  0  0  0  0  0  0  0  0  0  0  0
   -0.9760    2.1859    0.1520 C   0  0  0  0  0  0  0  0  0  0  0  0
   -2.9762   -3.2704   -0.5096 C   0  0  0  0  0  0  0  0  0  0  0  0
   -1.7473    3.3014   -0.5470 C   0  0  0  0  0  0  0  0  0  0  0  0
   -1.1758    2.2562    1.6630 C   0  0  0  0  0  0  0  0  0  0  0  0
    1.7293   -0.5853    0.7223 C   0  0  0  0  0  0  0  0  0  0  0  0
    3.1011   -0.3422    0.2090 C   0  0  0  0  0  0  0  0  0  0  0  0
    4.1550   -1.1886    0.5538 C   0  0  0  0  0  0  0  0  0  0  0  0
    3.3292    0.7506   -0.6272 C   0  0  0  0  0  0  0  0  0  0  0  0
    5.4369   -0.9421    0.0619 C   0  0  0  0  0  0  0  0  0  0  0  0
    4.6111    0.9970   -1.1190 C   0  0  0  0  0  0  0  0  0  0  0  0
    5.6649    0.1507   -0.7744 C   0  0  0  0  0  0  0  0  0  0  0  0
   -1.2507    0.8181   -1.4702 H   0  0  0  0  0  0  0  0  0  0  0  0
   -0.6646   -0.3101    1.3094 H   0  0  0  0  0  0  0  0  0  0  0  0
   -3.1314    0.6433    0.9632 H   0  0  0  0  0  0  0  0  0  0  0  0
   -3.5194    1.3392   -0.6090 H   0  0  0  0  0  0  0  0  0  0  0  0
   -2.6747   -1.9078    1.1092 H   0  0  0  0  0  0  0  0  0  0  0  0
   -0.4396   -2.4740    0.2203 H   0  0  0  0  0  0  0  0  0  0  0  0
   -0.8323   -1.7865   -1.3366 H   0  0  0  0  0  0  0  0  0  0  0  0
   -3.3022   -0.8210   -1.6840 H   0  0  0  0  0  0  0  0  0  0  0  0
   -4.4208   -0.9227   -0.3276 H   0  0  0  0  0  0  0  0  0  0  0  0
    0.0890    2.3367   -0.0642 H   0  0  0  0  0  0  0  0  0  0  0  0
   -4.0329   -3.4441   -0.2810 H   0  0  0  0  0  0  0  0  0  0  0  0
   -2.3969   -4.0787   -0.0510 H   0  0  0  0  0  0  0  0  0  0  0  0
   -2.8492   -3.3366   -1.5955 H   0  0  0  0  0  0  0  0  0  0  0  0
   -2.7942    3.3545   -0.2326 H   0  0  0  0  0  0  0  0  0  0  0  0
   -1.7139    3.1885   -1.6357 H   0  0  0  0  0  0  0  0  0  0  0  0
   -1.2983    4.2719   -0.3060 H   0  0  0  0  0  0  0  0  0  0  0  0
   -2.2215    2.1879    1.9730 H   0  0  0  0  0  0  0  0  0  0  0  0
   -0.5902    1.5166    2.2129 H   0  0  0  0  0  0  0  0  0  0  0  0
   -0.8245    3.2325    2.0213 H   0  0  0  0  0  0  0  0  0  0  0  0
    2.5322    1.4360   -0.9031 H   0  0  0  0  0  0  0  0  0  0  0  0
    6.2625   -1.5971    0.3268 H   0  0  0  0  0  0  0  0  0  0  0  0
    4.7897    1.8495   -1.7677 H   0  0  0  0  0  0  0  0  0  0  0  0
    6.6631    0.3433   -1.1566 H   0  0  0  0  0  0  0  0  0  0  0  0
    3.0123   -2.3484    1.5924 H   0  0  0  0  0  0  0  0  0  0  0  0
  1  5  1  0  0  0  0
  1 14  1  0  0  0  0
  2 14  2  0  0  0  0
  3 16  1  0  0  0  0
  3 44  1  0  0  0  0
  4  5  1  1  0  0  0
  4  6  1  0  0  0  0
  4 10  1  0  0  0  0
  4 21  1  0  0  0  0
  5  8  1  0  0  0  0
  5 22  1  1  0  0  0
  6  9  1  0  0  0  0
  6 23  1  0  0  0  0
  6 24  1  0  0  0  0
  7  8  1  0  0  0  0
  7  9  1  0  0  0  0
  7 11  1  0  0  0  0
  7 25  1  1  0  0  0
  8 26  1  0  0  0  0
  8 27  1  0  0  0  0
  9 28  1  0  0  0  0
  9 29  1  0  0  0  0
 10 12  1  0  0  0  0
 10 13  1  0  0  0  0
 10 30  1  0  0  0  0
 11 31  1  0  0  0  0
 11 32  1  0  0  0  0
 11 33  1  0  0  0  0
 12 34  1  0  0  0  0
 12 35  1  0  0  0  0
 12 36  1  0  0  0  0
 13 37  1  0  0  0  0
 13 38  1  0  0  0  0
 13 39  1  0  0  0  0
 14 15  1  0  0  0  0
 15 16  2  0  0  0  0
 15 17  1  0  0  0  0
 16 18  1  0  0  0  0
 17 19  2  0  0  0  0
 17 40  1  0  0  0  0
 18 20  2  0  0  0  0
 18 41  1  0  0  0  0
 19 20  1  0  0  0  0
 19 42  1  0  0  0  0
 20 43  1  0  0  0  0
M  END
