DB11362
 OpenBabel07062211533D

 67 69  0  0  0  0  0  0  0  0999 V2000
    6.1019   -1.7328   -1.3273 S   0  0  0  0  0  0  0  0  0  0  0  0
    1.3313   -3.1899    0.1425 O   0  0  0  0  0  0  0  0  0  0  0  0
    3.2573   -1.3137   -0.1060 O   0  0  0  0  0  0  0  0  0  0  0  0
    7.2565   -2.4678   -1.8045 O   0  0  0  0  0  0  0  0  0  0  0  0
    5.6370   -0.5447   -2.0162 O   0  0  0  0  0  0  0  0  0  0  0  0
   -3.3204   -0.9696    0.0498 N   0  0  0  0  0  0  0  0  0  0  0  0
   -1.6537    0.6024    0.6866 N   0  0  0  0  0  0  0  0  0  0  0  0
   -2.1891    2.0361   -1.6637 N   0  0  0  0  0  0  0  0  0  0  0  0
    4.7794   -2.7915   -1.1088 N   0  0  0  0  0  0  0  0  0  0  0  0
   -2.7564   -2.0675    0.7984 C   0  0  0  0  0  0  0  0  0  0  0  0
   -4.6938   -1.0900   -0.4422 C   0  0  0  0  0  0  0  0  0  0  0  0
   -1.4990   -2.6038    0.1191 C   0  0  0  0  0  0  0  0  0  0  0  0
   -0.8716   -3.7720    0.8809 C   0  0  0  0  0  0  0  0  0  0  0  0
   -2.5872    0.1993   -0.1980 C   0  0  0  0  0  0  0  0  0  0  0  0
   -4.7864   -2.2625   -1.4102 C   0  0  0  0  0  0  0  0  0  0  0  0
   -5.6366   -1.2708    0.7400 C   0  0  0  0  0  0  0  0  0  0  0  0
    0.4013   -4.2625    0.2043 C   0  0  0  0  0  0  0  0  0  0  0  0
   -2.8500    0.9033   -1.3525 C   0  0  0  0  0  0  0  0  0  0  0  0
   -0.9928    1.7353    0.3755 C   0  0  0  0  0  0  0  0  0  0  0  0
   -1.2559    2.4393   -0.7790 C   0  0  0  0  0  0  0  0  0  0  0  0
   -0.0004    2.1381    1.3451 C   0  0  0  0  0  0  0  0  0  0  0  0
   -0.5673    3.6561   -1.1435 C   0  0  0  0  0  0  0  0  0  0  0  0
    2.5519   -3.5919   -0.4648 C   0  0  0  0  0  0  0  0  0  0  0  0
   -0.3564    2.9806    2.3984 C   0  0  0  0  0  0  0  0  0  0  0  0
    1.3135    1.6846    1.2284 C   0  0  0  0  0  0  0  0  0  0  0  0
    0.6000    3.5956   -1.9048 C   0  0  0  0  0  0  0  0  0  0  0  0
   -1.0699    4.8914   -0.7347 C   0  0  0  0  0  0  0  0  0  0  0  0
    3.5238   -2.4364   -0.5192 C   0  0  0  0  0  0  0  0  0  0  0  0
    0.6015    3.3695    3.3349 C   0  0  0  0  0  0  0  0  0  0  0  0
    2.2714    2.0734    2.1649 C   0  0  0  0  0  0  0  0  0  0  0  0
    1.2648    4.7701   -2.2570 C   0  0  0  0  0  0  0  0  0  0  0  0
   -0.4052    6.0661   -1.0872 C   0  0  0  0  0  0  0  0  0  0  0  0
    1.9153    2.9160    3.2182 C   0  0  0  0  0  0  0  0  0  0  0  0
    0.7622    6.0053   -1.8483 C   0  0  0  0  0  0  0  0  0  0  0  0
    6.4016   -1.2844    0.3651 C   0  0  0  0  0  0  0  0  0  0  0  0
   -3.4583   -2.8975    0.9276 H   0  0  0  0  0  0  0  0  0  0  0  0
   -2.5128   -1.7296    1.8140 H   0  0  0  0  0  0  0  0  0  0  0  0
   -5.0460   -0.1901   -0.9564 H   0  0  0  0  0  0  0  0  0  0  0  0
   -1.7458   -2.9292   -0.8999 H   0  0  0  0  0  0  0  0  0  0  0  0
   -0.7567   -1.8051    0.0141 H   0  0  0  0  0  0  0  0  0  0  0  0
   -1.5870   -4.5983    0.9589 H   0  0  0  0  0  0  0  0  0  0  0  0
   -0.6328   -3.4404    1.8989 H   0  0  0  0  0  0  0  0  0  0  0  0
   -4.5973   -3.2286   -0.9320 H   0  0  0  0  0  0  0  0  0  0  0  0
   -4.0690   -2.1504   -2.2305 H   0  0  0  0  0  0  0  0  0  0  0  0
   -5.7886   -2.3121   -1.8504 H   0  0  0  0  0  0  0  0  0  0  0  0
   -6.6784   -1.2539    0.4003 H   0  0  0  0  0  0  0  0  0  0  0  0
   -5.5115   -0.4610    1.4677 H   0  0  0  0  0  0  0  0  0  0  0  0
   -5.4888   -2.2181    1.2674 H   0  0  0  0  0  0  0  0  0  0  0  0
    0.1783   -4.6198   -0.8079 H   0  0  0  0  0  0  0  0  0  0  0  0
    0.8277   -5.0890    0.7842 H   0  0  0  0  0  0  0  0  0  0  0  0
   -3.5511    0.5927   -2.1168 H   0  0  0  0  0  0  0  0  0  0  0  0
    3.0068   -4.4000    0.1188 H   0  0  0  0  0  0  0  0  0  0  0  0
    2.3620   -3.9328   -1.4887 H   0  0  0  0  0  0  0  0  0  0  0  0
   -1.3763    3.3425    2.5042 H   0  0  0  0  0  0  0  0  0  0  0  0
    1.6067    1.0280    0.4128 H   0  0  0  0  0  0  0  0  0  0  0  0
    1.0049    2.6406   -2.2318 H   0  0  0  0  0  0  0  0  0  0  0  0
   -1.9790    4.9562   -0.1413 H   0  0  0  0  0  0  0  0  0  0  0  0
    0.3243    4.0254    4.1549 H   0  0  0  0  0  0  0  0  0  0  0  0
    3.2943    1.7201    2.0738 H   0  0  0  0  0  0  0  0  0  0  0  0
    2.1739    4.7228   -2.8494 H   0  0  0  0  0  0  0  0  0  0  0  0
   -0.7964    7.0280   -0.7689 H   0  0  0  0  0  0  0  0  0  0  0  0
    2.6612    3.2188    3.9473 H   0  0  0  0  0  0  0  0  0  0  0  0
    1.2800    6.9197   -2.1225 H   0  0  0  0  0  0  0  0  0  0  0  0
    4.9434   -3.7826   -1.3288 H   0  0  0  0  0  0  0  0  0  0  0  0
    6.5698   -2.1912    0.9493 H   0  0  0  0  0  0  0  0  0  0  0  0
    5.5624   -0.7106    0.7579 H   0  0  0  0  0  0  0  0  0  0  0  0
    7.3018   -0.6653    0.3890 H   0  0  0  0  0  0  0  0  0  0  0  0
  1  4  2  0  0  0  0
  1  5  2  0  0  0  0
  1  9  1  0  0  0  0
  1 35  1  0  0  0  0
  2 17  1  0  0  0  0
  2 23  1  0  0  0  0
  3 28  2  0  0  0  0
  6 10  1  0  0  0  0
  6 11  1  0  0  0  0
  6 14  1  0  0  0  0
  7 14  2  0  0  0  0
  7 19  1  0  0  0  0
  8 18  2  0  0  0  0
  8 20  1  0  0  0  0
  9 28  1  0  0  0  0
  9 64  1  0  0  0  0
 10 12  1  0  0  0  0
 10 36  1  0  0  0  0
 10 37  1  0  0  0  0
 11 15  1  0  0  0  0
 11 16  1  0  0  0  0
 11 38  1  0  0  0  0
 12 13  1  0  0  0  0
 12 39  1  0  0  0  0
 12 40  1  0  0  0  0
 13 17  1  0  0  0  0
 13 41  1  0  0  0  0
 13 42  1  0  0  0  0
 14 18  1  0  0  0  0
 15 43  1  0  0  0  0
 15 44  1  0  0  0  0
 15 45  1  0  0  0  0
 16 46  1  0  0  0  0
 16 47  1  0  0  0  0
 16 48  1  0  0  0  0
 17 49  1  0  0  0  0
 17 50  1  0  0  0  0
 18 51  1  0  0  0  0
 19 20  2  0  0  0  0
 19 21  1  0  0  0  0
 20 22  1  0  0  0  0
 21 24  2  0  0  0  0
 21 25  1  0  0  0  0
 22 26  2  0  0  0  0
 22 27  1  0  0  0  0
 23 28  1  0  0  0  0
 23 52  1  0  0  0  0
 23 53  1  0  0  0  0
 24 29  1  0  0  0  0
 24 54  1  0  0  0  0
 25 30  2  0  0  0  0
 25 55  1  0  0  0  0
 26 31  1  0  0  0  0
 26 56  1  0  0  0  0
 27 32  2  0  0  0  0
 27 57  1  0  0  0  0
 29 33  2  0  0  0  0
 29 58  1  0  0  0  0
 30 33  1  0  0  0  0
 30 59  1  0  0  0  0
 31 34  2  0  0  0  0
 31 60  1  0  0  0  0
 32 34  1  0  0  0  0
 32 61  1  0  0  0  0
 33 62  1  0  0  0  0
 34 63  1  0  0  0  0
 35 65  1  0  0  0  0
 35 66  1  0  0  0  0
 35 67  1  0  0  0  0
M  END
