DB11207
 OpenBabel07062211533D

 38 38  0  0  0  0  0  0  0  0999 V2000
    1.8135    0.1992    0.0597 O   0  0  0  0  0  0  0  0  0  0  0  0
    1.0746   -1.8622   -0.6767 O   0  0  0  0  0  0  0  0  0  0  0  0
   -6.8054    1.0953    0.1687 O   0  0  0  0  0  0  0  0  0  0  0  0
    5.5738    0.5868    0.2835 C   0  0  0  0  0  0  0  0  0  0  0  0
    4.0757    0.9186    0.3761 C   0  0  0  0  0  0  0  0  0  0  0  0
    3.1658   -0.2279   -0.0482 C   0  0  0  0  0  0  0  0  0  0  0  0
    5.8924   -0.6268    1.1599 C   0  0  0  0  0  0  0  0  0  0  0  0
    6.0233    0.3185   -1.1534 C   0  0  0  0  0  0  0  0  0  0  0  0
    0.8699   -0.7232   -0.2879 C   0  0  0  0  0  0  0  0  0  0  0  0
   -2.9424   -0.3126   -0.2374 C   0  0  0  0  0  0  0  0  0  0  0  0
   -0.4622   -0.1012   -0.1134 C   0  0  0  0  0  0  0  0  0  0  0  0
   -1.5648   -0.8151   -0.3816 C   0  0  0  0  0  0  0  0  0  0  0  0
   -3.1669    1.0542   -0.2094 C   0  0  0  0  0  0  0  0  0  0  0  0
   -3.9866   -1.2173   -0.1323 C   0  0  0  0  0  0  0  0  0  0  0  0
   -5.5332    0.6313    0.0347 C   0  0  0  0  0  0  0  0  0  0  0  0
   -4.4712    1.5294   -0.0724 C   0  0  0  0  0  0  0  0  0  0  0  0
   -5.2908   -0.7419    0.0048 C   0  0  0  0  0  0  0  0  0  0  0  0
   -7.8439    0.1223    0.2731 C   0  0  0  0  0  0  0  0  0  0  0  0
    6.1334    1.4500    0.6649 H   0  0  0  0  0  0  0  0  0  0  0  0
    3.8545    1.8015   -0.2376 H   0  0  0  0  0  0  0  0  0  0  0  0
    3.8247    1.2117    1.4039 H   0  0  0  0  0  0  0  0  0  0  0  0
    3.3612   -0.5149   -1.0865 H   0  0  0  0  0  0  0  0  0  0  0  0
    3.3043   -1.0985    0.6009 H   0  0  0  0  0  0  0  0  0  0  0  0
    6.9777   -0.7587    1.2370 H   0  0  0  0  0  0  0  0  0  0  0  0
    5.4854   -1.5573    0.7515 H   0  0  0  0  0  0  0  0  0  0  0  0
    5.5052   -0.4934    2.1756 H   0  0  0  0  0  0  0  0  0  0  0  0
    5.5810   -0.5948   -1.5631 H   0  0  0  0  0  0  0  0  0  0  0  0
    7.1119    0.2025   -1.1956 H   0  0  0  0  0  0  0  0  0  0  0  0
    5.7522    1.1540   -1.8072 H   0  0  0  0  0  0  0  0  0  0  0  0
   -0.4837    0.9182    0.2533 H   0  0  0  0  0  0  0  0  0  0  0  0
   -1.4789   -1.8447   -0.7216 H   0  0  0  0  0  0  0  0  0  0  0  0
   -2.3747    1.7890   -0.3111 H   0  0  0  0  0  0  0  0  0  0  0  0
   -3.8126   -2.2900   -0.1526 H   0  0  0  0  0  0  0  0  0  0  0  0
   -4.6549    2.6003   -0.0543 H   0  0  0  0  0  0  0  0  0  0  0  0
   -6.0683   -1.4942    0.0832 H   0  0  0  0  0  0  0  0  0  0  0  0
   -8.7884    0.6673    0.3732 H   0  0  0  0  0  0  0  0  0  0  0  0
   -7.7317   -0.4909    1.1737 H   0  0  0  0  0  0  0  0  0  0  0  0
   -7.9197   -0.4844   -0.6356 H   0  0  0  0  0  0  0  0  0  0  0  0
  1  6  1  0  0  0  0
  1  9  1  0  0  0  0
  2  9  2  0  0  0  0
  3 15  1  0  0  0  0
  3 18  1  0  0  0  0
  4  5  1  0  0  0  0
  4  7  1  0  0  0  0
  4  8  1  0  0  0  0
  4 19  1  0  0  0  0
  5  6  1  0  0  0  0
  5 20  1  0  0  0  0
  5 21  1  0  0  0  0
  6 22  1  0  0  0  0
  6 23  1  0  0  0  0
  7 24  1  0  0  0  0
  7 25  1  0  0  0  0
  7 26  1  0  0  0  0
  8 27  1  0  0  0  0
  8 28  1  0  0  0  0
  8 29  1  0  0  0  0
  9 11  1  0  0  0  0
 10 12  1  0  0  0  0
 10 13  2  0  0  0  0
 10 14  1  0  0  0  0
 11 12  2  0  0  0  0
 11 30  1  0  0  0  0
 12 31  1  0  0  0  0
 13 16  1  0  0  0  0
 13 32  1  0  0  0  0
 14 17  2  0  0  0  0
 14 33  1  0  0  0  0
 15 16  2  0  0  0  0
 15 17  1  0  0  0  0
 16 34  1  0  0  0  0
 17 35  1  0  0  0  0
 18 36  1  0  0  0  0
 18 37  1  0  0  0  0
 18 38  1  0  0  0  0
M  END
