DB11853
 OpenBabel07062211533D

 71 75  0  0  0  0  0  0  0  0999 V2000
   -0.1257    1.5648    1.0613 S   0  0  0  0  0  0  0  0  0  0  0  0
    0.9604    5.1894    1.6810 F   0  0  0  0  0  0  0  0  0  0  0  0
    4.3117    2.6431   -0.5150 F   0  0  0  0  0  0  0  0  0  0  0  0
    2.4604   -2.2108   -0.6155 O   0  0  0  0  0  0  0  0  0  0  0  0
    4.8691    1.3585    1.3094 O   0  0  0  0  0  0  0  0  0  0  0  0
    8.4897   -2.9917   -0.6669 O   0  0  0  0  0  0  0  0  0  0  0  0
   -7.0406   -0.1074   -1.9828 O   0  0  0  0  0  0  0  0  0  0  0  0
   -9.6641   -0.0540   -1.4803 O   0  0  0  0  0  0  0  0  0  0  0  0
    2.5709    1.5372    1.1300 N   0  0  0  0  0  0  0  0  0  0  0  0
    3.7239   -0.4467    0.3256 N   0  0  0  0  0  0  0  0  0  0  0  0
   -1.5331   -2.6588    0.2701 N   0  0  0  0  0  0  0  0  0  0  0  0
    6.0780   -0.4010   -0.1995 N   0  0  0  0  0  0  0  0  0  0  0  0
   -6.5503    0.1601    0.3002 N   0  0  0  0  0  0  0  0  0  0  0  0
    7.2535   -1.0393   -0.4445 N   0  0  0  0  0  0  0  0  0  0  0  0
   -8.7308    0.0709   -0.4348 N   0  0  0  0  0  0  0  0  0  0  0  0
    1.3264   -0.3891    0.2635 C   0  0  0  0  0  0  0  0  0  0  0  0
   -0.0277   -0.7912    0.0540 C   0  0  0  0  0  0  0  0  0  0  0  0
    1.4007    0.8656    0.8033 C   0  0  0  0  0  0  0  0  0  0  0  0
   -0.9225    0.1798    0.4487 C   0  0  0  0  0  0  0  0  0  0  0  0
   -0.4379   -2.0988   -0.5202 C   0  0  0  0  0  0  0  0  0  0  0  0
    2.5292   -1.1274   -0.0416 C   0  0  0  0  0  0  0  0  0  0  0  0
    2.5877    2.8813    1.7097 C   0  0  0  0  0  0  0  0  0  0  0  0
    3.8014    0.8597    0.9317 C   0  0  0  0  0  0  0  0  0  0  0  0
   -2.3670    0.1756    0.4109 C   0  0  0  0  0  0  0  0  0  0  0  0
    2.6347    3.8918    0.6093 C   0  0  0  0  0  0  0  0  0  0  0  0
    4.9749   -1.1324    0.0661 C   0  0  0  0  0  0  0  0  0  0  0  0
   -3.0967    0.3148    1.5915 C   0  0  0  0  0  0  0  0  0  0  0  0
   -3.0317    0.0314   -0.8070 C   0  0  0  0  0  0  0  0  0  0  0  0
   -1.0166   -3.2930    1.4825 C   0  0  0  0  0  0  0  0  0  0  0  0
   -2.2974   -3.6204   -0.5237 C   0  0  0  0  0  0  0  0  0  0  0  0
    1.8037    5.0112    0.6547 C   0  0  0  0  0  0  0  0  0  0  0  0
    3.5093    3.7154   -0.4628 C   0  0  0  0  0  0  0  0  0  0  0  0
   -4.4909    0.3099    1.5543 C   0  0  0  0  0  0  0  0  0  0  0  0
   -4.4259    0.0263   -0.8442 C   0  0  0  0  0  0  0  0  0  0  0  0
   -5.1557    0.1657    0.3365 C   0  0  0  0  0  0  0  0  0  0  0  0
    4.9803   -2.5123    0.1019 C   0  0  0  0  0  0  0  0  0  0  0  0
    1.8473    5.9541   -0.3723 C   0  0  0  0  0  0  0  0  0  0  0  0
    3.5529    4.6585   -1.4898 C   0  0  0  0  0  0  0  0  0  0  0  0
    2.7219    5.7777   -1.4445 C   0  0  0  0  0  0  0  0  0  0  0  0
    6.1764   -3.1620   -0.1474 C   0  0  0  0  0  0  0  0  0  0  0  0
    7.2878   -2.3886   -0.4160 C   0  0  0  0  0  0  0  0  0  0  0  0
   -7.3991    0.0271   -0.8150 C   0  0  0  0  0  0  0  0  0  0  0  0
    9.5946   -2.1352   -0.9363 C   0  0  0  0  0  0  0  0  0  0  0  0
  -10.9706    0.0106   -0.9252 C   0  0  0  0  0  0  0  0  0  0  0  0
   -0.7674   -1.8999   -1.5497 H   0  0  0  0  0  0  0  0  0  0  0  0
    0.3580   -2.8387   -0.6061 H   0  0  0  0  0  0  0  0  0  0  0  0
    3.4855    3.0075    2.3270 H   0  0  0  0  0  0  0  0  0  0  0  0
    1.7416    3.0204    2.3900 H   0  0  0  0  0  0  0  0  0  0  0  0
   -2.6013    0.4169    2.5541 H   0  0  0  0  0  0  0  0  0  0  0  0
   -2.4813   -0.0681   -1.7396 H   0  0  0  0  0  0  0  0  0  0  0  0
   -0.4848   -2.5754    2.1170 H   0  0  0  0  0  0  0  0  0  0  0  0
   -1.8431   -3.6816    2.0885 H   0  0  0  0  0  0  0  0  0  0  0  0
   -0.3380   -4.1252    1.2610 H   0  0  0  0  0  0  0  0  0  0  0  0
   -2.7336   -3.1381   -1.4055 H   0  0  0  0  0  0  0  0  0  0  0  0
   -3.1358   -4.0185    0.0589 H   0  0  0  0  0  0  0  0  0  0  0  0
   -1.6806   -4.4617   -0.8600 H   0  0  0  0  0  0  0  0  0  0  0  0
   -5.0470    0.4165    2.4823 H   0  0  0  0  0  0  0  0  0  0  0  0
   -4.8683   -0.0881   -1.8237 H   0  0  0  0  0  0  0  0  0  0  0  0
    4.1477   -3.1302    0.4131 H   0  0  0  0  0  0  0  0  0  0  0  0
    1.2001    6.8255   -0.3368 H   0  0  0  0  0  0  0  0  0  0  0  0
    4.2338    4.5207   -2.3245 H   0  0  0  0  0  0  0  0  0  0  0  0
    2.7556    6.5119   -2.2440 H   0  0  0  0  0  0  0  0  0  0  0  0
    6.2380   -4.2442   -0.1084 H   0  0  0  0  0  0  0  0  0  0  0  0
   -7.0157    0.2653    1.1985 H   0  0  0  0  0  0  0  0  0  0  0  0
   -9.0694    0.1808    0.5144 H   0  0  0  0  0  0  0  0  0  0  0  0
   10.4720   -2.7638   -1.1147 H   0  0  0  0  0  0  0  0  0  0  0  0
    9.8093   -1.4905   -0.0776 H   0  0  0  0  0  0  0  0  0  0  0  0
    9.4174   -1.5385   -1.8373 H   0  0  0  0  0  0  0  0  0  0  0  0
  -11.1293   -0.8108   -0.2190 H   0  0  0  0  0  0  0  0  0  0  0  0
  -11.1307    0.9739   -0.4303 H   0  0  0  0  0  0  0  0  0  0  0  0
  -11.6947   -0.0862   -1.7388 H   0  0  0  0  0  0  0  0  0  0  0  0
  1 18  1  0  0  0  0
  1 19  1  0  0  0  0
  2 31  1  0  0  0  0
  3 32  1  0  0  0  0
  4 21  2  0  0  0  0
  5 23  2  0  0  0  0
  6 41  1  0  0  0  0
  6 43  1  0  0  0  0
  7 42  2  0  0  0  0
  8 15  1  0  0  0  0
  8 44  1  0  0  0  0
  9 18  1  0  0  0  0
  9 22  1  0  0  0  0
  9 23  1  0  0  0  0
 10 21  1  0  0  0  0
 10 23  1  0  0  0  0
 10 26  1  0  0  0  0
 11 20  1  0  0  0  0
 11 29  1  0  0  0  0
 11 30  1  0  0  0  0
 12 14  2  0  0  0  0
 12 26  1  0  0  0  0
 13 35  1  0  0  0  0
 13 42  1  0  0  0  0
 13 64  1  0  0  0  0
 14 41  1  0  0  0  0
 15 42  1  0  0  0  0
 15 65  1  0  0  0  0
 16 17  1  0  0  0  0
 16 18  2  0  0  0  0
 16 21  1  0  0  0  0
 17 19  2  0  0  0  0
 17 20  1  0  0  0  0
 19 24  1  0  0  0  0
 20 45  1  0  0  0  0
 20 46  1  0  0  0  0
 22 25  1  0  0  0  0
 22 47  1  0  0  0  0
 22 48  1  0  0  0  0
 24 27  2  0  0  0  0
 24 28  1  0  0  0  0
 25 31  2  0  0  0  0
 25 32  1  0  0  0  0
 26 36  2  0  0  0  0
 27 33  1  0  0  0  0
 27 49  1  0  0  0  0
 28 34  2  0  0  0  0
 28 50  1  0  0  0  0
 29 51  1  0  0  0  0
 29 52  1  0  0  0  0
 29 53  1  0  0  0  0
 30 54  1  0  0  0  0
 30 55  1  0  0  0  0
 30 56  1  0  0  0  0
 31 37  1  0  0  0  0
 32 38  2  0  0  0  0
 33 35  2  0  0  0  0
 33 57  1  0  0  0  0
 34 35  1  0  0  0  0
 34 58  1  0  0  0  0
 36 40  1  0  0  0  0
 36 59  1  0  0  0  0
 37 39  2  0  0  0  0
 37 60  1  0  0  0  0
 38 39  1  0  0  0  0
 38 61  1  0  0  0  0
 39 62  1  0  0  0  0
 40 41  2  0  0  0  0
 40 63  1  0  0  0  0
 43 66  1  0  0  0  0
 43 67  1  0  0  0  0
 43 68  1  0  0  0  0
 44 69  1  0  0  0  0
 44 70  1  0  0  0  0
 44 71  1  0  0  0  0
M  END
