DB11691
 OpenBabel07062211533D

 76 83  0  0  1  0  0  0  0  0999 V2000
    0.9928    2.3042    2.3406 O   0  0  0  0  0  0  0  0  0  0  0  0
    2.4801   -1.6676    0.7207 O   0  0  0  0  0  0  0  0  0  0  0  0
   -1.1929    0.3974    2.4744 O   0  0  0  0  0  0  0  0  0  0  0  0
    0.5759    5.0781    1.5450 O   0  0  0  0  0  0  0  0  0  0  0  0
   -2.1221   -0.4282   -1.0145 O   0  0  0  0  0  0  0  0  0  0  0  0
   -4.6579   -0.7484    1.7593 O   0  0  0  0  0  0  0  0  0  0  0  0
    4.7187   -0.3234   -0.2155 N   0  0  0  0  0  0  0  0  0  0  0  0
   -2.0376   -1.8192    0.8550 N   0  0  0  0  0  0  0  0  0  0  0  0
   -5.3571   -1.2805   -0.3010 N   0  0  0  0  0  0  0  0  0  0  0  0
   -5.7744    0.0586    1.5064 N   0  0  0  0  0  0  0  0  0  0  0  0
    2.3654    0.7153    1.1241 C   0  0  2  0  0  0  0  0  0  0  0  0
    2.2713   -0.4006    0.0752 C   0  0  1  0  0  0  0  0  0  0  0  0
    3.4362   -0.1441   -0.9437 C   0  0  1  0  0  0  0  0  0  0  0  0
    3.7242    0.6497    1.8588 C   0  0  0  0  0  0  0  0  0  0  0  0
    1.1799    0.8638    2.1004 C   0  0  2  0  0  0  0  0  0  0  0  0
    2.2338    2.0304    0.4399 C   0  0  0  0  0  0  0  0  0  0  0  0
    0.8757   -0.4818   -0.5851 C   0  0  0  0  0  0  0  0  0  0  0  0
    3.2986    1.2444   -1.6691 C   0  0  0  0  0  0  0  0  0  0  0  0
    4.9179    0.6194    0.8891 C   0  0  0  0  0  0  0  0  0  0  0  0
    2.7021    2.3414   -0.8236 C   0  0  0  0  0  0  0  0  0  0  0  0
    5.8847   -0.3768   -1.0908 C   0  0  0  0  0  0  0  0  0  0  0  0
    6.9709   -1.2144   -0.4981 C   0  0  0  0  0  0  0  0  0  0  0  0
    1.4959    2.9031    1.2111 C   0  0  0  0  0  0  0  0  0  0  0  0
   -0.1264    0.2771    1.6028 C   0  0  0  0  0  0  0  0  0  0  0  0
   -0.2523   -0.3179    0.4030 C   0  0  0  0  0  0  0  0  0  0  0  0
    7.0254   -2.6791   -0.8203 C   0  0  0  0  0  0  0  0  0  0  0  0
    8.0551   -1.7468   -1.3884 C   0  0  0  0  0  0  0  0  0  0  0  0
    2.4894    3.6463   -1.2679 C   0  0  0  0  0  0  0  0  0  0  0  0
    1.2842    4.1981    0.7962 C   0  0  0  0  0  0  0  0  0  0  0  0
    1.8009    4.5711   -0.4534 C   0  0  0  0  0  0  0  0  0  0  0  0
   -1.5618   -0.8476   -0.0052 C   0  0  0  0  0  0  0  0  0  0  0  0
   -3.3042   -2.4904    0.6674 C   0  0  0  0  0  0  0  0  0  0  0  0
   -3.4723   -3.4929    1.8242 C   0  0  0  0  0  0  0  0  0  0  0  0
   -3.2283   -3.2584   -0.6651 C   0  0  0  0  0  0  0  0  0  0  0  0
   -4.4807   -1.5057    0.6451 C   0  0  0  0  0  0  0  0  0  0  0  0
   -6.1299   -0.3135    0.2731 C   0  0  0  0  0  0  0  0  0  0  0  0
   -7.2502    0.2617   -0.4136 C   0  0  0  0  0  0  0  0  0  0  0  0
   -7.5724   -0.1661   -1.7014 C   0  0  0  0  0  0  0  0  0  0  0  0
   -8.0171    1.2487    0.2058 C   0  0  0  0  0  0  0  0  0  0  0  0
   -8.6615    0.3929   -2.3702 C   0  0  0  0  0  0  0  0  0  0  0  0
   -9.1061    1.8077   -0.4628 C   0  0  0  0  0  0  0  0  0  0  0  0
   -9.4284    1.3799   -1.7508 C   0  0  0  0  0  0  0  0  0  0  0  0
    3.3911   -0.9351   -1.7049 H   0  0  0  0  0  0  0  0  0  0  0  0
    3.7538   -0.2526    2.4839 H   0  0  0  0  0  0  0  0  0  0  0  0
    3.8484    1.4996    2.5428 H   0  0  0  0  0  0  0  0  0  0  0  0
    1.4168    0.3994    3.0662 H   0  0  0  0  0  0  0  0  0  0  0  0
    0.7477    0.2797   -1.3620 H   0  0  0  0  0  0  0  0  0  0  0  0
    0.7727   -1.4560   -1.0813 H   0  0  0  0  0  0  0  0  0  0  0  0
    2.6374    1.1018   -2.5339 H   0  0  0  0  0  0  0  0  0  0  0  0
    4.2625    1.5755   -2.0706 H   0  0  0  0  0  0  0  0  0  0  0  0
    5.7989    0.3460    1.4801 H   0  0  0  0  0  0  0  0  0  0  0  0
    5.1091    1.6316    0.5110 H   0  0  0  0  0  0  0  0  0  0  0  0
    5.6068   -0.8030   -2.0638 H   0  0  0  0  0  0  0  0  0  0  0  0
    6.2731    0.6272   -1.3036 H   0  0  0  0  0  0  0  0  0  0  0  0
    7.2909   -0.8911    0.4844 H   0  0  0  0  0  0  0  0  0  0  0  0
    2.5543   -2.3457    0.0276 H   0  0  0  0  0  0  0  0  0  0  0  0
    9.0592   -1.8000   -0.9854 H   0  0  0  0  0  0  0  0  0  0  0  0
    8.0103   -1.5321   -2.4490 H   0  0  0  0  0  0  0  0  0  0  0  0
    6.2911   -3.0934   -1.5000 H   0  0  0  0  0  0  0  0  0  0  0  0
    7.3361   -3.3555   -0.0333 H   0  0  0  0  0  0  0  0  0  0  0  0
    2.8315    3.9545   -2.2522 H   0  0  0  0  0  0  0  0  0  0  0  0
    1.6472    5.5808   -0.8281 H   0  0  0  0  0  0  0  0  0  0  0  0
   -0.8798    0.8771    3.2606 H   0  0  0  0  0  0  0  0  0  0  0  0
   -1.4658   -2.0936    1.6497 H   0  0  0  0  0  0  0  0  0  0  0  0
    0.5343    5.9285    1.0745 H   0  0  0  0  0  0  0  0  0  0  0  0
   -4.1176   -3.8855   -0.8031 H   0  0  0  0  0  0  0  0  0  0  0  0
   -3.1730   -2.5990   -1.5375 H   0  0  0  0  0  0  0  0  0  0  0  0
   -2.3520   -3.9172   -0.6948 H   0  0  0  0  0  0  0  0  0  0  0  0
   -4.4177   -4.0412    1.7387 H   0  0  0  0  0  0  0  0  0  0  0  0
   -3.4722   -2.9865    2.7969 H   0  0  0  0  0  0  0  0  0  0  0  0
   -2.6571   -4.2260    1.8386 H   0  0  0  0  0  0  0  0  0  0  0  0
   -6.9945   -0.9332   -2.2110 H   0  0  0  0  0  0  0  0  0  0  0  0
   -7.7964    1.6073    1.2080 H   0  0  0  0  0  0  0  0  0  0  0  0
   -8.9128    0.0601   -3.3730 H   0  0  0  0  0  0  0  0  0  0  0  0
   -9.7035    2.5762    0.0190 H   0  0  0  0  0  0  0  0  0  0  0  0
  -10.2763    1.8152   -2.2714 H   0  0  0  0  0  0  0  0  0  0  0  0
  1 15  1  0  0  0  0
  1 23  1  0  0  0  0
  2 12  1  0  0  0  0
  2 56  1  0  0  0  0
  3 24  1  0  0  0  0
  3 63  1  0  0  0  0
  4 29  1  0  0  0  0
  4 65  1  0  0  0  0
  5 31  2  0  0  0  0
  6 10  1  0  0  0  0
  6 35  1  0  0  0  0
  7 13  1  0  0  0  0
  7 19  1  0  0  0  0
  7 21  1  0  0  0  0
  8 31  1  0  0  0  0
  8 32  1  0  0  0  0
  8 64  1  0  0  0  0
  9 35  2  0  0  0  0
  9 36  1  0  0  0  0
 10 36  2  0  0  0  0
 11 12  1  6  0  0  0
 11 14  1  0  0  0  0
 11 16  1  0  0  0  0
 12 13  1  6  0  0  0
 12 17  1  0  0  0  0
 13 18  1  0  0  0  0
 13 43  1  6  0  0  0
 14 19  1  0  0  0  0
 14 44  1  0  0  0  0
 14 45  1  0  0  0  0
 15 11  1  6  0  0  0
 15 24  1  0  0  0  0
 15 46  1  0  0  0  0
 16 20  2  0  0  0  0
 16 23  1  0  0  0  0
 17 25  1  0  0  0  0
 17 47  1  0  0  0  0
 17 48  1  0  0  0  0
 18 20  1  0  0  0  0
 18 49  1  0  0  0  0
 18 50  1  0  0  0  0
 19 51  1  0  0  0  0
 19 52  1  0  0  0  0
 20 28  1  0  0  0  0
 21 22  1  0  0  0  0
 21 53  1  0  0  0  0
 21 54  1  0  0  0  0
 22 26  1  0  0  0  0
 22 27  1  0  0  0  0
 22 55  1  0  0  0  0
 23 29  2  0  0  0  0
 24 25  2  0  0  0  0
 25 31  1  0  0  0  0
 26 27  1  0  0  0  0
 26 59  1  0  0  0  0
 26 60  1  0  0  0  0
 27 57  1  0  0  0  0
 27 58  1  0  0  0  0
 28 30  2  0  0  0  0
 28 61  1  0  0  0  0
 29 30  1  0  0  0  0
 30 62  1  0  0  0  0
 32 33  1  0  0  0  0
 32 34  1  0  0  0  0
 32 35  1  0  0  0  0
 33 69  1  0  0  0  0
 33 70  1  0  0  0  0
 33 71  1  0  0  0  0
 34 66  1  0  0  0  0
 34 67  1  0  0  0  0
 34 68  1  0  0  0  0
 36 37  1  0  0  0  0
 37 38  2  0  0  0  0
 37 39  1  0  0  0  0
 38 40  1  0  0  0  0
 38 72  1  0  0  0  0
 39 41  2  0  0  0  0
 39 73  1  0  0  0  0
 40 42  2  0  0  0  0
 40 74  1  0  0  0  0
 41 42  1  0  0  0  0
 41 75  1  0  0  0  0
 42 76  1  0  0  0  0
M  END
