DB11226
 OpenBabel07062211533D

 58 59  0  0  1  0  0  0  0  0999 V2000
    1.0237   -1.9827    1.0124 O   0  0  0  0  0  0  0  0  0  0  0  0
    0.3454   -2.7218   -1.0656 O   0  0  0  0  0  0  0  0  0  0  0  0
   -6.8933    1.1855    1.4842 O   0  0  0  0  0  0  0  0  0  0  0  0
   -2.2288   -2.8217    2.5923 N   0  0  0  0  0  0  0  0  0  0  0  0
    3.1378   -1.2395    0.0770 C   0  0  1  0  0  0  0  0  0  0  0  0
    2.9782    0.0394    0.9260 C   0  0  0  0  0  0  0  0  0  0  0  0
    4.6052   -1.6208   -0.2218 C   0  0  0  0  0  0  0  0  0  0  0  0
    3.5957    1.2846    0.2814 C   0  0  0  0  0  0  0  0  0  0  0  0
    2.3570   -2.3886    0.7354 C   0  0  0  0  0  0  0  0  0  0  0  0
    3.4466    2.5440    1.1393 C   0  0  0  0  0  0  0  0  0  0  0  0
    5.4572   -1.9238    1.0032 C   0  0  0  0  0  0  0  0  0  0  0  0
    4.0803    3.7787    0.5168 C   0  0  0  0  0  0  0  0  0  0  0  0
    0.1133   -2.2095    0.0191 C   0  0  0  0  0  0  0  0  0  0  0  0
   -1.2307   -1.7264    0.4637 C   0  0  0  0  0  0  0  0  0  0  0  0
   -1.8885   -0.7606   -0.2289 C   0  0  0  0  0  0  0  0  0  0  0  0
   -3.2077   -0.2478    0.2227 C   0  0  0  0  0  0  0  0  0  0  0  0
   -1.2554   -0.1763   -1.4422 C   0  0  0  0  0  0  0  0  0  0  0  0
   -4.3823   -0.8312   -0.2520 C   0  0  0  0  0  0  0  0  0  0  0  0
   -3.2716    0.8169    1.1217 C   0  0  0  0  0  0  0  0  0  0  0  0
   -0.4031    0.9216   -1.3240 C   0  0  0  0  0  0  0  0  0  0  0  0
   -1.5141   -0.7265   -2.6976 C   0  0  0  0  0  0  0  0  0  0  0  0
   -1.7845   -2.3298    1.6396 C   0  0  0  0  0  0  0  0  0  0  0  0
   -5.6210   -0.3499    0.1720 C   0  0  0  0  0  0  0  0  0  0  0  0
   -4.5100    1.2982    1.5457 C   0  0  0  0  0  0  0  0  0  0  0  0
   -5.6848    0.7149    1.0710 C   0  0  0  0  0  0  0  0  0  0  0  0
    0.1903    1.4694   -2.4614 C   0  0  0  0  0  0  0  0  0  0  0  0
   -0.9207   -0.1788   -3.8349 C   0  0  0  0  0  0  0  0  0  0  0  0
   -0.0685    0.9193   -3.7169 C   0  0  0  0  0  0  0  0  0  0  0  0
   -8.0540    0.5435    0.9582 C   0  0  0  0  0  0  0  0  0  0  0  0
    2.6584   -1.0326   -0.8899 H   0  0  0  0  0  0  0  0  0  0  0  0
    1.9150    0.2530    1.0889 H   0  0  0  0  0  0  0  0  0  0  0  0
    3.4142   -0.1135    1.9206 H   0  0  0  0  0  0  0  0  0  0  0  0
    5.0871   -0.8305   -0.8076 H   0  0  0  0  0  0  0  0  0  0  0  0
    4.6067   -2.5087   -0.8670 H   0  0  0  0  0  0  0  0  0  0  0  0
    3.1327    1.4551   -0.6981 H   0  0  0  0  0  0  0  0  0  0  0  0
    4.6649    1.1238    0.1065 H   0  0  0  0  0  0  0  0  0  0  0  0
    2.8023   -2.6528    1.7002 H   0  0  0  0  0  0  0  0  0  0  0  0
    2.3863   -3.2958    0.1195 H   0  0  0  0  0  0  0  0  0  0  0  0
    2.3818    2.7410    1.3119 H   0  0  0  0  0  0  0  0  0  0  0  0
    3.9017    2.3708    2.1218 H   0  0  0  0  0  0  0  0  0  0  0  0
    6.4744   -2.1834    0.6910 H   0  0  0  0  0  0  0  0  0  0  0  0
    5.5282   -1.0584    1.6680 H   0  0  0  0  0  0  0  0  0  0  0  0
    5.0637   -2.7706    1.5719 H   0  0  0  0  0  0  0  0  0  0  0  0
    5.1545    3.6321    0.3659 H   0  0  0  0  0  0  0  0  0  0  0  0
    3.6246    4.0037   -0.4526 H   0  0  0  0  0  0  0  0  0  0  0  0
    3.9425    4.6468    1.1688 H   0  0  0  0  0  0  0  0  0  0  0  0
   -4.3482   -1.6625   -0.9523 H   0  0  0  0  0  0  0  0  0  0  0  0
   -2.3650    1.2819    1.5015 H   0  0  0  0  0  0  0  0  0  0  0  0
   -0.1892    1.3609   -0.3527 H   0  0  0  0  0  0  0  0  0  0  0  0
   -2.1751   -1.5829   -2.8062 H   0  0  0  0  0  0  0  0  0  0  0  0
   -6.4932   -0.8490   -0.2360 H   0  0  0  0  0  0  0  0  0  0  0  0
   -4.5534    2.1279    2.2461 H   0  0  0  0  0  0  0  0  0  0  0  0
    0.8553    2.3232   -2.3688 H   0  0  0  0  0  0  0  0  0  0  0  0
   -1.1216   -0.6074   -4.8122 H   0  0  0  0  0  0  0  0  0  0  0  0
    0.3942    1.3453   -4.6022 H   0  0  0  0  0  0  0  0  0  0  0  0
   -8.9253    1.0448    1.3924 H   0  0  0  0  0  0  0  0  0  0  0  0
   -8.1054   -0.5074    1.2625 H   0  0  0  0  0  0  0  0  0  0  0  0
   -8.1237    0.6651   -0.1281 H   0  0  0  0  0  0  0  0  0  0  0  0
  1  9  1  0  0  0  0
  1 13  1  0  0  0  0
  2 13  2  0  0  0  0
  3 25  1  0  0  0  0
  3 29  1  0  0  0  0
  4 22  3  0  0  0  0
  5  6  1  0  0  0  0
  5  7  1  0  0  0  0
  5  9  1  0  0  0  0
  5 30  1  6  0  0  0
  6  8  1  0  0  0  0
  6 31  1  0  0  0  0
  6 32  1  0  0  0  0
  7 11  1  0  0  0  0
  7 33  1  0  0  0  0
  7 34  1  0  0  0  0
  8 10  1  0  0  0  0
  8 35  1  0  0  0  0
  8 36  1  0  0  0  0
  9 37  1  0  0  0  0
  9 38  1  0  0  0  0
 10 12  1  0  0  0  0
 10 39  1  0  0  0  0
 10 40  1  0  0  0  0
 11 41  1  0  0  0  0
 11 42  1  0  0  0  0
 11 43  1  0  0  0  0
 12 44  1  0  0  0  0
 12 45  1  0  0  0  0
 12 46  1  0  0  0  0
 13 14  1  0  0  0  0
 14 15  2  0  0  0  0
 14 22  1  0  0  0  0
 15 16  1  0  0  0  0
 15 17  1  0  0  0  0
 16 18  2  0  0  0  0
 16 19  1  0  0  0  0
 17 20  2  0  0  0  0
 17 21  1  0  0  0  0
 18 23  1  0  0  0  0
 18 47  1  0  0  0  0
 19 24  2  0  0  0  0
 19 48  1  0  0  0  0
 20 26  1  0  0  0  0
 20 49  1  0  0  0  0
 21 27  2  0  0  0  0
 21 50  1  0  0  0  0
 23 25  2  0  0  0  0
 23 51  1  0  0  0  0
 24 25  1  0  0  0  0
 24 52  1  0  0  0  0
 26 28  2  0  0  0  0
 26 53  1  0  0  0  0
 27 28  1  0  0  0  0
 27 54  1  0  0  0  0
 28 55  1  0  0  0  0
 29 56  1  0  0  0  0
 29 57  1  0  0  0  0
 29 58  1  0  0  0  0
M  END
