DB11943
 OpenBabel07062211533D

 42 45  0  0  1  0  0  0  0  0999 V2000
    0.9781    1.4115   -0.1352 Cl  0  0  0  0  0  0  0  0  0  0  0  0
    2.8758   -3.2425   -0.0302 F   0  0  0  0  0  0  0  0  0  0  0  0
   -1.8931    1.0787    2.5543 F   0  0  0  0  0  0  0  0  0  0  0  0
   -1.9020    5.3762    0.5620 F   0  0  0  0  0  0  0  0  0  0  0  0
    6.2968    0.0955    0.2977 O   0  0  0  0  0  0  0  0  0  0  0  0
   -2.0467   -4.2094    0.1084 O   0  0  0  0  0  0  0  0  0  0  0  0
   -4.5386   -3.8435   -0.6588 O   0  0  0  0  0  0  0  0  0  0  0  0
   -5.4965   -2.0905    0.4550 O   0  0  0  0  0  0  0  0  0  0  0  0
    3.1438   -0.5290   -0.1202 N   0  0  0  0  0  0  0  0  0  0  0  0
   -1.7781   -0.1154    0.0698 N   0  0  0  0  0  0  0  0  0  0  0  0
   -1.7838    2.0693   -0.9402 N   0  0  0  0  0  0  0  0  0  0  0  0
   -1.7893    4.2340   -1.9301 N   0  0  0  0  0  0  0  0  0  0  0  0
    4.9855    0.3416   -0.2588 C   0  0  2  0  0  0  0  0  0  0  0  0
    3.8311    0.3652    0.7479 C   0  0  0  0  0  0  0  0  0  0  0  0
    4.2923   -0.8710   -0.8878 C   0  0  0  0  0  0  0  0  0  0  0  0
    1.8634   -1.0953   -0.0531 C   0  0  0  0  0  0  0  0  0  0  0  0
    0.7059   -0.3112   -0.0320 C   0  0  0  0  0  0  0  0  0  0  0  0
   -0.5716   -0.8962    0.0465 C   0  0  0  0  0  0  0  0  0  0  0  0
    1.7716   -2.4820   -0.0102 C   0  0  0  0  0  0  0  0  0  0  0  0
   -0.6395   -2.3068    0.0589 C   0  0  0  0  0  0  0  0  0  0  0  0
    0.5217   -3.0919    0.0400 C   0  0  0  0  0  0  0  0  0  0  0  0
   -1.9572   -2.9887    0.0673 C   0  0  0  0  0  0  0  0  0  0  0  0
   -2.9900   -0.8012    0.0203 C   0  0  0  0  0  0  0  0  0  0  0  0
   -3.1607   -2.1283    0.0147 C   0  0  2  0  0  0  0  0  0  0  0  0
   -1.8109    1.3127    0.1879 C   0  0  0  0  0  0  0  0  0  0  0  0
   -1.8682    1.8596    1.4666 C   0  0  0  0  0  0  0  0  0  0  0  0
   -4.5269   -2.6534   -0.0219 C   0  0  0  0  0  0  0  0  0  0  0  0
   -1.8993    3.2439    1.5936 C   0  0  0  0  0  0  0  0  0  0  0  0
   -1.8153    3.4110   -0.7774 C   0  0  0  0  0  0  0  0  0  0  0  0
   -1.8727    4.0416    0.4551 C   0  0  0  0  0  0  0  0  0  0  0  0
    5.0041    1.2166   -0.9207 H   0  0  0  0  0  0  0  0  0  0  0  0
    4.0474   -0.0915    1.7194 H   0  0  0  0  0  0  0  0  0  0  0  0
    3.3927    1.3509    0.8966 H   0  0  0  0  0  0  0  0  0  0  0  0
    4.1246   -0.8094   -1.9658 H   0  0  0  0  0  0  0  0  0  0  0  0
    4.7233   -1.8396   -0.6204 H   0  0  0  0  0  0  0  0  0  0  0  0
    6.5170    0.9087    0.7833 H   0  0  0  0  0  0  0  0  0  0  0  0
    0.4708   -4.1771    0.0552 H   0  0  0  0  0  0  0  0  0  0  0  0
   -3.8460   -0.1312   -0.0059 H   0  0  0  0  0  0  0  0  0  0  0  0
   -1.9437    3.6999    2.5777 H   0  0  0  0  0  0  0  0  0  0  0  0
   -5.4396   -4.2287   -0.7035 H   0  0  0  0  0  0  0  0  0  0  0  0
   -2.2205    5.1487   -1.8776 H   0  0  0  0  0  0  0  0  0  0  0  0
   -1.7557    3.7684   -2.8283 H   0  0  0  0  0  0  0  0  0  0  0  0
  1 17  1  0  0  0  0
  2 19  1  0  0  0  0
  3 26  1  0  0  0  0
  4 30  1  0  0  0  0
  5 13  1  0  0  0  0
  5 36  1  0  0  0  0
  6 22  2  0  0  0  0
  7 27  1  0  0  0  0
  7 40  1  0  0  0  0
  8 27  2  0  0  0  0
  9 14  1  0  0  0  0
  9 15  1  0  0  0  0
  9 16  1  0  0  0  0
 10 18  1  0  0  0  0
 10 23  2  0  0  0  0
 10 25  1  0  0  0  0
 11 25  2  0  0  0  0
 11 29  1  0  0  0  0
 12 29  1  0  0  0  0
 12 41  1  0  0  0  0
 12 42  1  0  0  0  0
 13 14  1  0  0  0  0
 13 15  1  0  0  0  0
 13 31  1  6  0  0  0
 14 32  1  0  0  0  0
 14 33  1  0  0  0  0
 15 34  1  0  0  0  0
 15 35  1  0  0  0  0
 16 17  2  0  0  0  0
 16 19  1  0  0  0  0
 17 18  1  0  0  0  0
 18 20  2  0  0  0  0
 19 21  2  0  0  0  0
 20 21  1  0  0  0  0
 20 22  1  0  0  0  0
 21 37  1  0  0  0  0
 22 24  1  0  0  0  0
 23 24  1  0  0  0  0
 23 38  1  0  0  0  0
 24 27  1  1  0  0  0
 25 26  1  0  0  0  0
 26 28  2  0  0  0  0
 28 30  1  0  0  0  0
 28 39  1  0  0  0  0
 29 30  2  0  0  0  0
M  END
