DB11638
 OpenBabel07062211533D

 44 47  0  0  1  0  0  0  0  0999 V2000
   -0.3845    0.9999    1.4854 O   0  0  0  0  0  0  0  0  0  0  0  0
   -1.4690    1.4552   -1.1718 O   0  0  0  0  0  0  0  0  0  0  0  0
    0.7851    2.0334   -1.0332 O   0  0  0  0  0  0  0  0  0  0  0  0
   -1.0512    2.2137    1.0237 O   0  0  0  0  0  0  0  0  0  0  0  0
    2.9815    2.7933   -1.0056 O   0  0  0  0  0  0  0  0  0  0  0  0
   -0.0308    0.1633    0.3524 C   0  0  2  0  0  0  0  0  0  0  0  0
   -1.0061   -1.0522    0.4521 C   0  0  2  0  0  0  0  0  0  0  0  0
    1.4407   -0.2674    0.6038 C   0  0  1  0  0  0  0  0  0  0  0  0
   -0.5499   -2.2575   -0.4127 C   0  0  1  0  0  0  0  0  0  0  0  0
   -0.1429    0.9433   -0.9831 C   0  0  1  0  0  0  0  0  0  0  0  0
    1.8468   -1.4673   -0.2671 C   0  0  0  0  0  0  0  0  0  0  0  0
    2.3870    0.9502    0.4283 C   0  0  2  0  0  0  0  0  0  0  0  0
   -2.4808   -0.6928    0.1543 C   0  0  0  0  0  0  0  0  0  0  0  0
    0.8961   -2.6409   -0.0863 C   0  0  0  0  0  0  0  0  0  0  0  0
   -2.0545    1.8347    0.0770 C   0  0  2  0  0  0  0  0  0  0  0  0
   -2.9421    0.6949    0.6107 C   0  0  0  0  0  0  0  0  0  0  0  0
    2.1481    1.6384   -0.9240 C   0  0  1  0  0  0  0  0  0  0  0  0
   -1.4438   -3.4902   -0.2297 C   0  0  0  0  0  0  0  0  0  0  0  0
    3.8633    0.5987    0.6362 C   0  0  0  0  0  0  0  0  0  0  0  0
   -2.8941    3.0846   -0.1770 C   0  0  0  0  0  0  0  0  0  0  0  0
   -0.9907   -1.3785    1.5040 H   0  0  0  0  0  0  0  0  0  0  0  0
    1.5281   -0.5832    1.6544 H   0  0  0  0  0  0  0  0  0  0  0  0
   -0.5977   -1.9728   -1.4721 H   0  0  0  0  0  0  0  0  0  0  0  0
    0.0606    0.2954   -1.8421 H   0  0  0  0  0  0  0  0  0  0  0  0
    2.8535   -1.8067    0.0010 H   0  0  0  0  0  0  0  0  0  0  0  0
    1.8802   -1.1924   -1.3270 H   0  0  0  0  0  0  0  0  0  0  0  0
    2.1300    1.6688    1.2203 H   0  0  0  0  0  0  0  0  0  0  0  0
   -3.1351   -1.4359    0.6273 H   0  0  0  0  0  0  0  0  0  0  0  0
   -2.6664   -0.7785   -0.9249 H   0  0  0  0  0  0  0  0  0  0  0  0
    1.2204   -3.4632   -0.7358 H   0  0  0  0  0  0  0  0  0  0  0  0
    0.9637   -3.0093    0.9456 H   0  0  0  0  0  0  0  0  0  0  0  0
   -3.9675    0.8163    0.2379 H   0  0  0  0  0  0  0  0  0  0  0  0
   -3.0014    0.7321    1.7052 H   0  0  0  0  0  0  0  0  0  0  0  0
    2.4084    0.9948   -1.7705 H   0  0  0  0  0  0  0  0  0  0  0  0
   -1.0483   -4.3436   -0.7915 H   0  0  0  0  0  0  0  0  0  0  0  0
   -1.5081   -3.7806    0.8244 H   0  0  0  0  0  0  0  0  0  0  0  0
   -2.4580   -3.3085   -0.5978 H   0  0  0  0  0  0  0  0  0  0  0  0
    4.4719    1.5046    0.7269 H   0  0  0  0  0  0  0  0  0  0  0  0
    3.9997    0.0210    1.5564 H   0  0  0  0  0  0  0  0  0  0  0  0
    4.2636    0.0171   -0.2002 H   0  0  0  0  0  0  0  0  0  0  0  0
   -3.3739    3.4354    0.7430 H   0  0  0  0  0  0  0  0  0  0  0  0
   -2.2615    3.9014   -0.5443 H   0  0  0  0  0  0  0  0  0  0  0  0
   -3.6607    2.9056   -0.9383 H   0  0  0  0  0  0  0  0  0  0  0  0
    2.9904    3.2256   -0.1352 H   0  0  0  0  0  0  0  0  0  0  0  0
  1  4  1  0  0  0  0
  1  6  1  0  0  0  0
  2 10  1  0  0  0  0
  2 15  1  0  0  0  0
  3 10  1  0  0  0  0
  3 17  1  0  0  0  0
  4 15  1  0  0  0  0
  5 17  1  0  0  0  0
  5 44  1  0  0  0  0
  6  7  1  6  0  0  0
  7  9  1  6  0  0  0
  7 13  1  0  0  0  0
  7 21  1  0  0  0  0
  8  6  1  6  0  0  0
  8 11  1  0  0  0  0
  8 22  1  0  0  0  0
  9 14  1  0  0  0  0
  9 18  1  0  0  0  0
  9 23  1  6  0  0  0
 10  6  1  1  0  0  0
 10 24  1  0  0  0  0
 11 14  1  0  0  0  0
 11 25  1  0  0  0  0
 11 26  1  0  0  0  0
 12  8  1  1  0  0  0
 12 19  1  0  0  0  0
 12 27  1  0  0  0  0
 13 16  1  0  0  0  0
 13 28  1  0  0  0  0
 13 29  1  0  0  0  0
 14 30  1  0  0  0  0
 14 31  1  0  0  0  0
 15 16  1  0  0  0  0
 15 20  1  6  0  0  0
 16 32  1  0  0  0  0
 16 33  1  0  0  0  0
 17 12  1  1  0  0  0
 17 34  1  0  0  0  0
 18 35  1  0  0  0  0
 18 36  1  0  0  0  0
 18 37  1  0  0  0  0
 19 38  1  0  0  0  0
 19 39  1  0  0  0  0
 19 40  1  0  0  0  0
 20 41  1  0  0  0  0
 20 42  1  0  0  0  0
 20 43  1  0  0  0  0
M  END
