DB11742
 OpenBabel07062211533D

 74 77  0  0  0  0  0  0  0  0999 V2000
    3.2570    0.2200    0.3599 O   0  0  0  0  0  0  0  0  0  0  0  0
   -1.9732   -1.0602   -2.2671 O   0  0  0  0  0  0  0  0  0  0  0  0
    1.0817   -3.3700   -0.1977 N   0  0  0  0  0  0  0  0  0  0  0  0
    3.0240   -1.1678    0.1558 C   0  0  0  0  0  0  0  0  0  0  0  0
    2.2528   -1.3556   -1.1472 C   0  0  0  0  0  0  0  0  0  0  0  0
    2.2403   -1.7431    1.3329 C   0  0  0  0  0  0  0  0  0  0  0  0
    1.8269   -2.8128   -1.3347 C   0  0  0  0  0  0  0  0  0  0  0  0
    1.8140   -3.1871    1.0628 C   0  0  0  0  0  0  0  0  0  0  0  0
   -0.2824   -2.8518   -0.1242 C   0  0  0  0  0  0  0  0  0  0  0  0
   -1.1787   -3.5770   -1.1301 C   0  0  0  0  0  0  0  0  0  0  0  0
    4.4702    0.6397   -0.2491 C   0  0  0  0  0  0  0  0  0  0  0  0
   -2.6223   -3.0674   -1.0948 C   0  0  0  0  0  0  0  0  0  0  0  0
    4.3344    2.0612   -0.7540 C   0  0  0  0  0  0  0  0  0  0  0  0
    5.6578    0.4528    0.6751 C   0  0  0  0  0  0  0  0  0  0  0  0
   -2.7567   -1.6043   -1.4926 C   0  0  0  0  0  0  0  0  0  0  0  0
   -7.1549    1.4513    0.6594 C   0  0  0  0  0  0  0  0  0  0  0  0
   -3.8925   -0.8146   -0.9368 C   0  0  0  0  0  0  0  0  0  0  0  0
   -6.0186    0.6625    0.1026 C   0  0  0  0  0  0  0  0  0  0  0  0
    5.0623    2.4781   -1.8685 C   0  0  0  0  0  0  0  0  0  0  0  0
    6.9213    0.1940    0.1437 C   0  0  0  0  0  0  0  0  0  0  0  0
    3.4818    2.9535   -0.1042 C   0  0  0  0  0  0  0  0  0  0  0  0
    5.4869    0.5395    2.0567 C   0  0  0  0  0  0  0  0  0  0  0  0
   -6.8825    2.9809    0.8471 C   0  0  0  0  0  0  0  0  0  0  0  0
   -8.4104    1.3638   -0.2629 C   0  0  0  0  0  0  0  0  0  0  0  0
   -7.5699    0.9278    2.0695 C   0  0  0  0  0  0  0  0  0  0  0  0
   -5.0952   -1.4484   -0.6245 C   0  0  0  0  0  0  0  0  0  0  0  0
   -3.7528    0.5576   -0.7294 C   0  0  0  0  0  0  0  0  0  0  0  0
   -6.1582   -0.7098   -0.1047 C   0  0  0  0  0  0  0  0  0  0  0  0
   -4.8158    1.2962   -0.2097 C   0  0  0  0  0  0  0  0  0  0  0  0
    4.9375    3.7874   -2.3331 C   0  0  0  0  0  0  0  0  0  0  0  0
    8.0137    0.0216    0.9939 C   0  0  0  0  0  0  0  0  0  0  0  0
    3.3569    4.2629   -0.5689 C   0  0  0  0  0  0  0  0  0  0  0  0
    6.5792    0.3673    2.9069 C   0  0  0  0  0  0  0  0  0  0  0  0
    4.0848    4.6798   -1.6833 C   0  0  0  0  0  0  0  0  0  0  0  0
    7.8427    0.1083    2.3755 C   0  0  0  0  0  0  0  0  0  0  0  0
    3.9734   -1.7196    0.1004 H   0  0  0  0  0  0  0  0  0  0  0  0
    1.3840   -0.6863   -1.1692 H   0  0  0  0  0  0  0  0  0  0  0  0
    2.8686   -1.0507   -2.0015 H   0  0  0  0  0  0  0  0  0  0  0  0
    2.8530   -1.6961    2.2413 H   0  0  0  0  0  0  0  0  0  0  0  0
    1.3622   -1.1171    1.5371 H   0  0  0  0  0  0  0  0  0  0  0  0
    1.2690   -2.9119   -2.2717 H   0  0  0  0  0  0  0  0  0  0  0  0
    2.7283   -3.4237   -1.4783 H   0  0  0  0  0  0  0  0  0  0  0  0
    2.7120   -3.8182    1.0296 H   0  0  0  0  0  0  0  0  0  0  0  0
    1.2278   -3.5673    1.9085 H   0  0  0  0  0  0  0  0  0  0  0  0
   -0.7025   -3.0529    0.8705 H   0  0  0  0  0  0  0  0  0  0  0  0
   -0.3219   -1.7656   -0.2521 H   0  0  0  0  0  0  0  0  0  0  0  0
   -0.7985   -3.4640   -2.1511 H   0  0  0  0  0  0  0  0  0  0  0  0
   -1.1823   -4.6522   -0.9109 H   0  0  0  0  0  0  0  0  0  0  0  0
    4.6424    0.0214   -1.1420 H   0  0  0  0  0  0  0  0  0  0  0  0
   -3.2310   -3.6580   -1.7888 H   0  0  0  0  0  0  0  0  0  0  0  0
   -3.0169   -3.2113   -0.0826 H   0  0  0  0  0  0  0  0  0  0  0  0
    5.7278    1.7944   -2.3884 H   0  0  0  0  0  0  0  0  0  0  0  0
    7.0700    0.1191   -0.9300 H   0  0  0  0  0  0  0  0  0  0  0  0
    2.9120    2.6572    0.7721 H   0  0  0  0  0  0  0  0  0  0  0  0
    4.5144    0.7493    2.4936 H   0  0  0  0  0  0  0  0  0  0  0  0
   -6.6476    3.4670   -0.1071 H   0  0  0  0  0  0  0  0  0  0  0  0
   -6.0545    3.1590    1.5430 H   0  0  0  0  0  0  0  0  0  0  0  0
   -7.7620    3.4910    1.2585 H   0  0  0  0  0  0  0  0  0  0  0  0
   -8.1787    1.7272   -1.2711 H   0  0  0  0  0  0  0  0  0  0  0  0
   -8.7775    0.3361   -0.3583 H   0  0  0  0  0  0  0  0  0  0  0  0
   -9.2370    1.9668    0.1306 H   0  0  0  0  0  0  0  0  0  0  0  0
   -8.3864    1.5248    2.4921 H   0  0  0  0  0  0  0  0  0  0  0  0
   -7.9142   -0.1117    2.0349 H   0  0  0  0  0  0  0  0  0  0  0  0
   -6.7243    0.9730    2.7658 H   0  0  0  0  0  0  0  0  0  0  0  0
   -7.0843   -1.2279    0.1272 H   0  0  0  0  0  0  0  0  0  0  0  0
   -4.6527    2.3588   -0.0673 H   0  0  0  0  0  0  0  0  0  0  0  0
   -5.2371   -2.5126   -0.7891 H   0  0  0  0  0  0  0  0  0  0  0  0
   -2.8210    1.0661   -0.9629 H   0  0  0  0  0  0  0  0  0  0  0  0
    5.5036    4.1119   -3.2013 H   0  0  0  0  0  0  0  0  0  0  0  0
    8.9973   -0.1809    0.5803 H   0  0  0  0  0  0  0  0  0  0  0  0
    2.6949    4.9587   -0.0616 H   0  0  0  0  0  0  0  0  0  0  0  0
    6.4466    0.4367    3.9828 H   0  0  0  0  0  0  0  0  0  0  0  0
    3.9881    5.6992   -2.0448 H   0  0  0  0  0  0  0  0  0  0  0  0
    8.6931   -0.0255    3.0374 H   0  0  0  0  0  0  0  0  0  0  0  0
  1  4  1  0  0  0  0
  1 11  1  0  0  0  0
  2 15  2  0  0  0  0
  3  7  1  0  0  0  0
  3  8  1  0  0  0  0
  3  9  1  0  0  0  0
  4  5  1  0  0  0  0
  4  6  1  0  0  0  0
  4 36  1  0  0  0  0
  5  7  1  0  0  0  0
  5 37  1  0  0  0  0
  5 38  1  0  0  0  0
  6  8  1  0  0  0  0
  6 39  1  0  0  0  0
  6 40  1  0  0  0  0
  7 41  1  0  0  0  0
  7 42  1  0  0  0  0
  8 43  1  0  0  0  0
  8 44  1  0  0  0  0
  9 10  1  0  0  0  0
  9 45  1  0  0  0  0
  9 46  1  0  0  0  0
 10 12  1  0  0  0  0
 10 47  1  0  0  0  0
 10 48  1  0  0  0  0
 11 13  1  0  0  0  0
 11 14  1  0  0  0  0
 11 49  1  0  0  0  0
 12 15  1  0  0  0  0
 12 50  1  0  0  0  0
 12 51  1  0  0  0  0
 13 19  2  0  0  0  0
 13 21  1  0  0  0  0
 14 20  2  0  0  0  0
 14 22  1  0  0  0  0
 15 17  1  0  0  0  0
 16 18  1  0  0  0  0
 16 23  1  0  0  0  0
 16 24  1  0  0  0  0
 16 25  1  0  0  0  0
 17 26  2  0  0  0  0
 17 27  1  0  0  0  0
 18 28  2  0  0  0  0
 18 29  1  0  0  0  0
 19 30  1  0  0  0  0
 19 52  1  0  0  0  0
 20 31  1  0  0  0  0
 20 53  1  0  0  0  0
 21 32  2  0  0  0  0
 21 54  1  0  0  0  0
 22 33  2  0  0  0  0
 22 55  1  0  0  0  0
 23 56  1  0  0  0  0
 23 57  1  0  0  0  0
 23 58  1  0  0  0  0
 24 59  1  0  0  0  0
 24 60  1  0  0  0  0
 24 61  1  0  0  0  0
 25 62  1  0  0  0  0
 25 63  1  0  0  0  0
 25 64  1  0  0  0  0
 26 28  1  0  0  0  0
 26 67  1  0  0  0  0
 27 29  2  0  0  0  0
 27 68  1  0  0  0  0
 28 65  1  0  0  0  0
 29 66  1  0  0  0  0
 30 34  2  0  0  0  0
 30 69  1  0  0  0  0
 31 35  2  0  0  0  0
 31 70  1  0  0  0  0
 32 34  1  0  0  0  0
 32 71  1  0  0  0  0
 33 35  1  0  0  0  0
 33 72  1  0  0  0  0
 34 73  1  0  0  0  0
 35 74  1  0  0  0  0
M  END
