DB11735
 OpenBabel07062211533D

 24 23  0  0  1  0  0  0  0  0999 V2000
    0.4418    1.2040   -1.1417 O   0  0  0  0  0  0  0  0  0  0  0  0
   -0.9866   -1.2898    1.1158 O   0  0  0  0  0  0  0  0  0  0  0  0
    1.7492    0.8574    1.3276 O   0  0  0  0  0  0  0  0  0  0  0  0
   -2.3911   -0.7506   -1.3092 O   0  0  0  0  0  0  0  0  0  0  0  0
    4.0659   -0.2426    0.3169 O   0  0  0  0  0  0  0  0  0  0  0  0
   -4.3575   -0.7030    0.4834 O   0  0  0  0  0  0  0  0  0  0  0  0
    0.3507   -0.0259   -0.4147 C   0  0  2  0  0  0  0  0  0  0  0  0
   -0.9281   -0.0271    0.4412 C   0  0  1  0  0  0  0  0  0  0  0  0
    1.6666   -0.1975    0.3582 C   0  0  1  0  0  0  0  0  0  0  0  0
   -2.2535    0.2313   -0.2879 C   0  0  2  0  0  0  0  0  0  0  0  0
    2.9152   -0.1022   -0.5120 C   0  0  0  0  0  0  0  0  0  0  0  0
   -3.4731    0.1388    0.6060 C   0  0  0  0  0  0  0  0  0  0  0  0
    0.2925   -0.8327   -1.1551 H   0  0  0  0  0  0  0  0  0  0  0  0
   -0.8388    0.7364    1.2234 H   0  0  0  0  0  0  0  0  0  0  0  0
    1.6681   -1.1391    0.9174 H   0  0  0  0  0  0  0  0  0  0  0  0
   -2.2484    1.2201   -0.7580 H   0  0  0  0  0  0  0  0  0  0  0  0
    2.9987    0.8722   -1.0028 H   0  0  0  0  0  0  0  0  0  0  0  0
    2.9336   -0.8847   -1.2766 H   0  0  0  0  0  0  0  0  0  0  0  0
    0.3358    1.9348   -0.5094 H   0  0  0  0  0  0  0  0  0  0  0  0
   -1.1237   -1.9762    0.4403 H   0  0  0  0  0  0  0  0  0  0  0  0
   -3.5295    0.9004    1.4030 H   0  0  0  0  0  0  0  0  0  0  0  0
    1.8514    1.6990    0.8521 H   0  0  0  0  0  0  0  0  0  0  0  0
   -3.1595   -0.5027   -1.8515 H   0  0  0  0  0  0  0  0  0  0  0  0
    4.0204   -1.1201    0.7336 H   0  0  0  0  0  0  0  0  0  0  0  0
  1  7  1  0  0  0  0
  1 19  1  0  0  0  0
  2  8  1  0  0  0  0
  2 20  1  0  0  0  0
  3  9  1  0  0  0  0
  3 22  1  0  0  0  0
  4 10  1  0  0  0  0
  4 23  1  0  0  0  0
  5 11  1  0  0  0  0
  5 24  1  0  0  0  0
  6 12  2  0  0  0  0
  7  8  1  0  0  0  0
  7  9  1  0  0  0  0
  7 13  1  6  0  0  0
  8 10  1  0  0  0  0
  8 14  1  1  0  0  0
  9 11  1  0  0  0  0
  9 15  1  1  0  0  0
 10 12  1  0  0  0  0
 10 16  1  6  0  0  0
 11 17  1  0  0  0  0
 11 18  1  0  0  0  0
 12 21  1  0  0  0  0
M  END
