DB11182
 OpenBabel07062211533D

 37 40  0  0  0  0  0  0  0  0999 V2000
    5.4460   -0.4747    0.0698 I   0  0  0  0  0  0  0  0  0  0  0  0
    3.1851   -4.5426   -0.0583 I   0  0  0  0  0  0  0  0  0  0  0  0
    2.4203    4.7881    0.4176 I   0  0  0  0  0  0  0  0  0  0  0  0
   -2.9098   -4.7973    0.1308 I   0  0  0  0  0  0  0  0  0  0  0  0
   -1.1729    0.3230    3.0349 Cl  0  0  0  0  0  0  0  0  0  0  0  0
   -4.0531    1.9461   -2.2956 Cl  0  0  0  0  0  0  0  0  0  0  0  0
   -3.9825    1.7448    3.1491 Cl  0  0  0  0  0  0  0  0  0  0  0  0
   -5.4297    2.5608    0.4786 Cl  0  0  0  0  0  0  0  0  0  0  0  0
    2.4569   -1.4405    0.1181 O   0  0  0  0  0  0  0  0  0  0  0  0
    4.8399    2.6584    0.2349 O   0  0  0  0  0  0  0  0  0  0  0  0
    0.1896   -5.6084   -0.0084 O   0  0  0  0  0  0  0  0  0  0  0  0
   -0.6025    1.6141   -2.5505 O   0  0  0  0  0  0  0  0  0  0  0  0
   -1.5408   -0.4430   -2.7835 O   0  0  0  0  0  0  0  0  0  0  0  0
   -0.0835   -0.1459    0.2630 C   0  0  0  0  0  0  0  0  0  0  0  0
    1.1915    0.6134    0.2578 C   0  0  0  0  0  0  0  0  0  0  0  0
   -0.0140   -1.5051    0.1958 C   0  0  0  0  0  0  0  0  0  0  0  0
   -1.3919    0.5157    0.3354 C   0  0  0  0  0  0  0  0  0  0  0  0
    2.3983   -0.0771    0.1856 C   0  0  0  0  0  0  0  0  0  0  0  0
    1.2874   -2.1922    0.1203 C   0  0  0  0  0  0  0  0  0  0  0  0
    1.2359    2.0159    0.3230 C   0  0  0  0  0  0  0  0  0  0  0  0
   -2.0309    0.8760   -0.8486 C   0  0  0  0  0  0  0  0  0  0  0  0
   -1.2222   -2.3383    0.1953 C   0  0  0  0  0  0  0  0  0  0  0  0
    3.6228    0.5983    0.1777 C   0  0  0  0  0  0  0  0  0  0  0  0
   -1.9896    0.7818    1.5651 C   0  0  0  0  0  0  0  0  0  0  0  0
    1.3676   -3.5361    0.0525 C   0  0  0  0  0  0  0  0  0  0  0  0
    2.4564    2.6970    0.3154 C   0  0  0  0  0  0  0  0  0  0  0  0
    3.6507    1.9878    0.2426 C   0  0  0  0  0  0  0  0  0  0  0  0
   -1.1827   -3.6766    0.1294 C   0  0  0  0  0  0  0  0  0  0  0  0
   -3.2746    1.5058   -0.8028 C   0  0  0  0  0  0  0  0  0  0  0  0
    0.1296   -4.3833    0.0519 C   0  0  0  0  0  0  0  0  0  0  0  0
   -3.2334    1.4117    1.6111 C   0  0  0  0  0  0  0  0  0  0  0  0
   -3.8760    1.7735    0.4271 C   0  0  0  0  0  0  0  0  0  0  0  0
   -1.3929    0.5913   -2.1358 C   0  0  0  0  0  0  0  0  0  0  0  0
    0.3116    2.5868    0.3812 H   0  0  0  0  0  0  0  0  0  0  0  0
   -2.1932   -1.8568    0.2505 H   0  0  0  0  0  0  0  0  0  0  0  0
    5.5608    2.0080    0.1803 H   0  0  0  0  0  0  0  0  0  0  0  0
   -0.1740    1.4196   -3.4113 H   0  0  0  0  0  0  0  0  0  0  0  0
  1 23  1  0  0  0  0
  2 25  1  0  0  0  0
  3 26  1  0  0  0  0
  4 28  1  0  0  0  0
  5 24  1  0  0  0  0
  6 29  1  0  0  0  0
  7 31  1  0  0  0  0
  8 32  1  0  0  0  0
  9 18  1  0  0  0  0
  9 19  1  0  0  0  0
 10 27  1  0  0  0  0
 10 36  1  0  0  0  0
 11 30  2  0  0  0  0
 12 33  1  0  0  0  0
 12 37  1  0  0  0  0
 13 33  2  0  0  0  0
 14 15  1  0  0  0  0
 14 16  2  0  0  0  0
 14 17  1  0  0  0  0
 15 18  2  0  0  0  0
 15 20  1  0  0  0  0
 16 19  1  0  0  0  0
 16 22  1  0  0  0  0
 17 21  2  0  0  0  0
 17 24  1  0  0  0  0
 18 23  1  0  0  0  0
 19 25  2  0  0  0  0
 20 26  2  0  0  0  0
 20 34  1  0  0  0  0
 21 29  1  0  0  0  0
 21 33  1  0  0  0  0
 22 28  2  0  0  0  0
 22 35  1  0  0  0  0
 23 27  2  0  0  0  0
 24 31  2  0  0  0  0
 25 30  1  0  0  0  0
 26 27  1  0  0  0  0
 28 30  1  0  0  0  0
 29 32  2  0  0  0  0
 31 32  1  0  0  0  0
M  END
