DB11176
 OpenBabel07062211533D

 98 99  0  0  1  0  0  0  0  0999 V2000
   14.8658    2.4638    0.0077 O   0  0  0  0  0  0  0  0  0  0  0  0
  -15.2161   -1.6317    0.1719 O   0  0  0  0  0  0  0  0  0  0  0  0
   11.1067    1.9529    0.1540 C   0  0  0  0  0  0  0  0  0  0  0  0
  -12.5240    0.9407   -0.5689 C   0  0  0  0  0  0  0  0  0  0  0  0
   12.4738    2.5645   -0.2515 C   0  0  0  0  0  0  0  0  0  0  0  0
  -13.9256    0.3576   -0.2483 C   0  0  0  0  0  0  0  0  0  0  0  0
   13.6424    1.8649    0.4242 C   0  0  1  0  0  0  0  0  0  0  0  0
  -13.9072   -1.1581   -0.1302 C   0  0  1  0  0  0  0  0  0  0  0  0
   11.1472    0.4066    0.1332 C   0  0  0  0  0  0  0  0  0  0  0  0
  -11.4239    0.2861    0.2996 C   0  0  0  0  0  0  0  0  0  0  0  0
   13.6637    0.3946    0.0291 C   0  0  0  0  0  0  0  0  0  0  0  0
  -12.9690   -1.5779    0.9933 C   0  0  0  0  0  0  0  0  0  0  0  0
   12.3108   -0.2864    0.0499 C   0  0  0  0  0  0  0  0  0  0  0  0
  -11.6465   -0.8401    1.0231 C   0  0  0  0  0  0  0  0  0  0  0  0
   10.0708    2.5220   -0.8458 C   0  0  0  0  0  0  0  0  0  0  0  0
   10.7403    2.4420    1.5738 C   0  0  0  0  0  0  0  0  0  0  0  0
  -12.2127    0.7034   -2.0642 C   0  0  0  0  0  0  0  0  0  0  0  0
  -12.6296    2.4656   -0.3237 C   0  0  0  0  0  0  0  0  0  0  0  0
    9.8577   -0.2566    0.2349 C   0  0  0  0  0  0  0  0  0  0  0  0
  -10.1271    0.9426    0.2699 C   0  0  0  0  0  0  0  0  0  0  0  0
   12.4397   -1.7902   -0.0288 C   0  0  0  0  0  0  0  0  0  0  0  0
  -10.6492   -1.5148    1.9363 C   0  0  0  0  0  0  0  0  0  0  0  0
    9.5454   -1.3623   -0.4594 C   0  0  0  0  0  0  0  0  0  0  0  0
   -8.9649    0.2721    0.2175 C   0  0  0  0  0  0  0  0  0  0  0  0
    8.2725   -2.0824   -0.4173 C   0  0  0  0  0  0  0  0  0  0  0  0
   -7.6265    0.8620    0.1814 C   0  0  0  0  0  0  0  0  0  0  0  0
    8.3208   -3.5915   -0.3978 C   0  0  0  0  0  0  0  0  0  0  0  0
   -7.5306    2.3705    0.1964 C   0  0  0  0  0  0  0  0  0  0  0  0
    7.0699   -1.4704   -0.3647 C   0  0  0  0  0  0  0  0  0  0  0  0
   -6.4829    0.1451    0.1287 C   0  0  0  0  0  0  0  0  0  0  0  0
    5.7498   -2.0672   -0.3194 C   0  0  0  0  0  0  0  0  0  0  0  0
   -5.1142    0.6279    0.0897 C   0  0  0  0  0  0  0  0  0  0  0  0
    4.6055   -1.3651   -0.2682 C   0  0  0  0  0  0  0  0  0  0  0  0
   -4.0574   -0.2015    0.0380 C   0  0  0  0  0  0  0  0  0  0  0  0
    3.2425   -1.9053   -0.2384 C   0  0  0  0  0  0  0  0  0  0  0  0
   -2.6479    0.1893   -0.0010 C   0  0  0  0  0  0  0  0  0  0  0  0
    3.0943   -3.4059   -0.2455 C   0  0  0  0  0  0  0  0  0  0  0  0
   -2.3263    1.6642   -0.0159 C   0  0  0  0  0  0  0  0  0  0  0  0
    2.2141   -1.0315   -0.1869 C   0  0  0  0  0  0  0  0  0  0  0  0
   -1.6325   -0.6992   -0.0525 C   0  0  0  0  0  0  0  0  0  0  0  0
    0.7956   -1.3325   -0.1457 C   0  0  0  0  0  0  0  0  0  0  0  0
   -0.2078   -0.4398   -0.0947 C   0  0  0  0  0  0  0  0  0  0  0  0
   12.6118    2.5029   -1.3411 H   0  0  0  0  0  0  0  0  0  0  0  0
   12.5031    3.6387   -0.0250 H   0  0  0  0  0  0  0  0  0  0  0  0
  -14.6571    0.6606   -1.0094 H   0  0  0  0  0  0  0  0  0  0  0  0
  -14.3077    0.7783    0.6936 H   0  0  0  0  0  0  0  0  0  0  0  0
   13.5815    1.9626    1.5137 H   0  0  0  0  0  0  0  0  0  0  0  0
  -13.5984   -1.6224   -1.0731 H   0  0  0  0  0  0  0  0  0  0  0  0
   14.0955    0.2817   -0.9746 H   0  0  0  0  0  0  0  0  0  0  0  0
   14.3572   -0.1176    0.7087 H   0  0  0  0  0  0  0  0  0  0  0  0
  -13.4669   -1.4443    1.9633 H   0  0  0  0  0  0  0  0  0  0  0  0
  -12.7903   -2.6573    0.8982 H   0  0  0  0  0  0  0  0  0  0  0  0
   10.1144    3.6171   -0.8769 H   0  0  0  0  0  0  0  0  0  0  0  0
    9.0449    2.2504   -0.5729 H   0  0  0  0  0  0  0  0  0  0  0  0
   10.2542    2.1511   -1.8609 H   0  0  0  0  0  0  0  0  0  0  0  0
   11.3980    2.0095    2.3357 H   0  0  0  0  0  0  0  0  0  0  0  0
   10.8198    3.5330    1.6469 H   0  0  0  0  0  0  0  0  0  0  0  0
    9.7111    2.1810    1.8437 H   0  0  0  0  0  0  0  0  0  0  0  0
  -12.0931   -0.3614   -2.2921 H   0  0  0  0  0  0  0  0  0  0  0  0
  -11.2861    1.2058   -2.3654 H   0  0  0  0  0  0  0  0  0  0  0  0
  -13.0141    1.0939   -2.7018 H   0  0  0  0  0  0  0  0  0  0  0  0
  -13.5159    2.8802   -0.8194 H   0  0  0  0  0  0  0  0  0  0  0  0
  -11.7690    3.0124   -0.7241 H   0  0  0  0  0  0  0  0  0  0  0  0
  -12.7118    2.6931    0.7454 H   0  0  0  0  0  0  0  0  0  0  0  0
    9.1394    0.1653    0.9314 H   0  0  0  0  0  0  0  0  0  0  0  0
  -10.1295    2.0244    0.3340 H   0  0  0  0  0  0  0  0  0  0  0  0
   11.6738   -2.3237    0.5395 H   0  0  0  0  0  0  0  0  0  0  0  0
   12.4495   -2.1242   -1.0709 H   0  0  0  0  0  0  0  0  0  0  0  0
   13.3858   -2.1173    0.4191 H   0  0  0  0  0  0  0  0  0  0  0  0
  -11.1656   -1.9281    2.8113 H   0  0  0  0  0  0  0  0  0  0  0  0
   -9.9011   -0.8329    2.3482 H   0  0  0  0  0  0  0  0  0  0  0  0
  -10.1561   -2.3462    1.4231 H   0  0  0  0  0  0  0  0  0  0  0  0
   14.8360    3.4006    0.2664 H   0  0  0  0  0  0  0  0  0  0  0  0
  -15.8019   -1.3555   -0.5536 H   0  0  0  0  0  0  0  0  0  0  0  0
   10.2256   -1.7771   -1.1978 H   0  0  0  0  0  0  0  0  0  0  0  0
   -8.9642   -0.8113    0.1207 H   0  0  0  0  0  0  0  0  0  0  0  0
    9.3436   -3.9503   -0.2333 H   0  0  0  0  0  0  0  0  0  0  0  0
    7.7148   -4.0076    0.4139 H   0  0  0  0  0  0  0  0  0  0  0  0
    7.9803   -4.0010   -1.3547 H   0  0  0  0  0  0  0  0  0  0  0  0
   -8.0961    2.7898   -0.6447 H   0  0  0  0  0  0  0  0  0  0  0  0
   -7.9583    2.7625    1.1269 H   0  0  0  0  0  0  0  0  0  0  0  0
   -6.5329    2.7995    0.1176 H   0  0  0  0  0  0  0  0  0  0  0  0
    7.0585   -0.3797   -0.3720 H   0  0  0  0  0  0  0  0  0  0  0  0
   -6.5776   -0.9416    0.1152 H   0  0  0  0  0  0  0  0  0  0  0  0
    5.7116   -3.1516   -0.3432 H   0  0  0  0  0  0  0  0  0  0  0  0
   -4.9370    1.6937    0.1113 H   0  0  0  0  0  0  0  0  0  0  0  0
    4.6795   -0.2776   -0.2517 H   0  0  0  0  0  0  0  0  0  0  0  0
   -4.2357   -1.2762    0.0231 H   0  0  0  0  0  0  0  0  0  0  0  0
    3.5286   -3.8291   -1.1583 H   0  0  0  0  0  0  0  0  0  0  0  0
    2.0590   -3.7494   -0.2061 H   0  0  0  0  0  0  0  0  0  0  0  0
    3.6004   -3.8457    0.6213 H   0  0  0  0  0  0  0  0  0  0  0  0
   -2.8361    2.1501   -0.8566 H   0  0  0  0  0  0  0  0  0  0  0  0
   -2.6759    2.1313    0.9126 H   0  0  0  0  0  0  0  0  0  0  0  0
   -1.2777    1.9384   -0.1187 H   0  0  0  0  0  0  0  0  0  0  0  0
    2.4355    0.0363   -0.1768 H   0  0  0  0  0  0  0  0  0  0  0  0
   -1.8869   -1.7596   -0.0563 H   0  0  0  0  0  0  0  0  0  0  0  0
    0.5144   -2.3814   -0.1617 H   0  0  0  0  0  0  0  0  0  0  0  0
    0.1078    0.5977   -0.0752 H   0  0  0  0  0  0  0  0  0  0  0  0
  1  7  1  0  0  0  0
  1 73  1  0  0  0  0
  2  8  1  0  0  0  0
  2 74  1  0  0  0  0
  3  5  1  0  0  0  0
  3  9  1  0  0  0  0
  3 15  1  0  0  0  0
  3 16  1  0  0  0  0
  4  6  1  0  0  0  0
  4 10  1  0  0  0  0
  4 17  1  0  0  0  0
  4 18  1  0  0  0  0
  5  7  1  0  0  0  0
  5 43  1  0  0  0  0
  5 44  1  0  0  0  0
  6  8  1  0  0  0  0
  6 45  1  0  0  0  0
  6 46  1  0  0  0  0
  7 11  1  0  0  0  0
  7 47  1  1  0  0  0
  8 12  1  0  0  0  0
  8 48  1  6  0  0  0
  9 13  2  0  0  0  0
  9 19  1  0  0  0  0
 10 14  2  0  0  0  0
 10 20  1  0  0  0  0
 11 13  1  0  0  0  0
 11 49  1  0  0  0  0
 11 50  1  0  0  0  0
 12 14  1  0  0  0  0
 12 51  1  0  0  0  0
 12 52  1  0  0  0  0
 13 21  1  0  0  0  0
 14 22  1  0  0  0  0
 15 53  1  0  0  0  0
 15 54  1  0  0  0  0
 15 55  1  0  0  0  0
 16 56  1  0  0  0  0
 16 57  1  0  0  0  0
 16 58  1  0  0  0  0
 17 59  1  0  0  0  0
 17 60  1  0  0  0  0
 17 61  1  0  0  0  0
 18 62  1  0  0  0  0
 18 63  1  0  0  0  0
 18 64  1  0  0  0  0
 19 23  2  0  0  0  0
 19 65  1  0  0  0  0
 20 24  2  0  0  0  0
 20 66  1  0  0  0  0
 21 67  1  0  0  0  0
 21 68  1  0  0  0  0
 21 69  1  0  0  0  0
 22 70  1  0  0  0  0
 22 71  1  0  0  0  0
 22 72  1  0  0  0  0
 23 25  1  0  0  0  0
 23 75  1  0  0  0  0
 24 26  1  0  0  0  0
 24 76  1  0  0  0  0
 25 27  1  0  0  0  0
 25 29  2  0  0  0  0
 26 28  1  0  0  0  0
 26 30  2  0  0  0  0
 27 77  1  0  0  0  0
 27 78  1  0  0  0  0
 27 79  1  0  0  0  0
 28 80  1  0  0  0  0
 28 81  1  0  0  0  0
 28 82  1  0  0  0  0
 29 31  1  0  0  0  0
 29 83  1  0  0  0  0
 30 32  1  0  0  0  0
 30 84  1  0  0  0  0
 31 33  2  0  0  0  0
 31 85  1  0  0  0  0
 32 34  2  0  0  0  0
 32 86  1  0  0  0  0
 33 35  1  0  0  0  0
 33 87  1  0  0  0  0
 34 36  1  0  0  0  0
 34 88  1  0  0  0  0
 35 37  1  0  0  0  0
 35 39  2  0  0  0  0
 36 38  1  0  0  0  0
 36 40  2  0  0  0  0
 37 89  1  0  0  0  0
 37 90  1  0  0  0  0
 37 91  1  0  0  0  0
 38 92  1  0  0  0  0
 38 93  1  0  0  0  0
 38 94  1  0  0  0  0
 39 41  1  0  0  0  0
 39 95  1  0  0  0  0
 40 42  1  0  0  0  0
 40 96  1  0  0  0  0
 41 42  2  0  0  0  0
 41 97  1  0  0  0  0
 42 98  1  0  0  0  0
M  END
