DB11219
 OpenBabel07062211533D

 41 43  0  0  1  0  0  0  0  0999 V2000
   -2.0751   -1.0844    2.5995 O   0  0  0  0  0  0  0  0  0  0  0  0
   -2.0777    0.7314   -0.3954 C   0  0  0  0  0  0  0  0  0  0  0  0
   -2.8240   -0.4251    0.3407 C   0  0  1  0  0  0  0  0  0  0  0  0
   -0.7650   -0.0931   -0.5456 C   0  0  2  0  0  0  0  0  0  0  0  0
   -2.6525   -1.6287   -0.6222 C   0  0  0  0  0  0  0  0  0  0  0  0
   -1.2492   -1.3884   -1.2406 C   0  0  0  0  0  0  0  0  0  0  0  0
   -0.4679   -0.4800    0.8891 C   0  0  0  0  0  0  0  0  0  0  0  0
   -1.8304   -0.7122    1.4672 C   0  0  0  0  0  0  0  0  0  0  0  0
   -1.9191    2.0276    0.4311 C   0  0  0  0  0  0  0  0  0  0  0  0
   -2.7028    1.1490   -1.7419 C   0  0  0  0  0  0  0  0  0  0  0  0
   -4.2386   -0.1710    0.8022 C   0  0  0  0  0  0  0  0  0  0  0  0
    0.6854   -0.5685    1.5479 C   0  0  0  0  0  0  0  0  0  0  0  0
    2.0287   -0.3399    0.9792 C   0  0  0  0  0  0  0  0  0  0  0  0
    2.7285   -1.4095    0.4488 C   0  0  0  0  0  0  0  0  0  0  0  0
    2.5579    0.9390    0.9895 C   0  0  0  0  0  0  0  0  0  0  0  0
    3.9976   -1.1936   -0.0882 C   0  0  0  0  0  0  0  0  0  0  0  0
    3.8269    1.1549    0.4524 C   0  0  0  0  0  0  0  0  0  0  0  0
    4.5469    0.0886   -0.0865 C   0  0  0  0  0  0  0  0  0  0  0  0
    5.9034    0.3193   -0.6616 C   0  0  0  0  0  0  0  0  0  0  0  0
    0.0467    0.4200   -1.0653 H   0  0  0  0  0  0  0  0  0  0  0  0
   -3.4210   -1.6485   -1.4023 H   0  0  0  0  0  0  0  0  0  0  0  0
   -2.6858   -2.5894   -0.0952 H   0  0  0  0  0  0  0  0  0  0  0  0
   -0.5818   -2.2390   -1.0596 H   0  0  0  0  0  0  0  0  0  0  0  0
   -1.3239   -1.2563   -2.3252 H   0  0  0  0  0  0  0  0  0  0  0  0
   -1.5392    1.8672    1.4442 H   0  0  0  0  0  0  0  0  0  0  0  0
   -1.2256    2.7145   -0.0677 H   0  0  0  0  0  0  0  0  0  0  0  0
   -2.8813    2.5420    0.5345 H   0  0  0  0  0  0  0  0  0  0  0  0
   -3.6502    1.6761   -1.5822 H   0  0  0  0  0  0  0  0  0  0  0  0
   -2.0305    1.8279   -2.2789 H   0  0  0  0  0  0  0  0  0  0  0  0
   -2.9190    0.3165   -2.4150 H   0  0  0  0  0  0  0  0  0  0  0  0
   -4.2820    0.6539    1.5210 H   0  0  0  0  0  0  0  0  0  0  0  0
   -4.8952    0.0741   -0.0382 H   0  0  0  0  0  0  0  0  0  0  0  0
   -4.6501   -1.0550    1.3019 H   0  0  0  0  0  0  0  0  0  0  0  0
    0.6876   -0.8494    2.5985 H   0  0  0  0  0  0  0  0  0  0  0  0
    2.3106   -2.4126    0.4421 H   0  0  0  0  0  0  0  0  0  0  0  0
    2.0061    1.7772    1.4067 H   0  0  0  0  0  0  0  0  0  0  0  0
    4.5494   -2.0327   -0.5036 H   0  0  0  0  0  0  0  0  0  0  0  0
    4.2447    2.1581    0.4609 H   0  0  0  0  0  0  0  0  0  0  0  0
    6.1111   -0.3816   -1.4774 H   0  0  0  0  0  0  0  0  0  0  0  0
    5.9900    1.3289   -1.0775 H   0  0  0  0  0  0  0  0  0  0  0  0
    6.6663    0.1924    0.1128 H   0  0  0  0  0  0  0  0  0  0  0  0
  1  8  2  0  0  0  0
  2  3  1  0  0  0  0
  2  4  1  0  0  0  0
  2  9  1  0  0  0  0
  2 10  1  0  0  0  0
  3  5  1  0  0  0  0
  3  8  1  0  0  0  0
  3 11  1  1  0  0  0
  4  6  1  0  0  0  0
  4  7  1  0  0  0  0
  4 20  1  6  0  0  0
  5  6  1  0  0  0  0
  5 21  1  0  0  0  0
  5 22  1  0  0  0  0
  6 23  1  0  0  0  0
  6 24  1  0  0  0  0
  7  8  1  0  0  0  0
  7 12  2  0  0  0  0
  9 25  1  0  0  0  0
  9 26  1  0  0  0  0
  9 27  1  0  0  0  0
 10 28  1  0  0  0  0
 10 29  1  0  0  0  0
 10 30  1  0  0  0  0
 11 31  1  0  0  0  0
 11 32  1  0  0  0  0
 11 33  1  0  0  0  0
 12 13  1  0  0  0  0
 12 34  1  0  0  0  0
 13 14  2  0  0  0  0
 13 15  1  0  0  0  0
 14 16  1  0  0  0  0
 14 35  1  0  0  0  0
 15 17  2  0  0  0  0
 15 36  1  0  0  0  0
 16 18  2  0  0  0  0
 16 37  1  0  0  0  0
 17 18  1  0  0  0  0
 17 38  1  0  0  0  0
 18 19  1  0  0  0  0
 19 39  1  0  0  0  0
 19 40  1  0  0  0  0
 19 41  1  0  0  0  0
M  END
