DB11269
 OpenBabel07062211533D

 60 61  0  0  0  0  0  0  0  0999 V2000
   -2.5007    1.5756    0.6387 O   0  0  0  0  0  0  0  0  0  0  0  0
   -0.9292   -1.6123    3.1664 O   0  0  0  0  0  0  0  0  0  0  0  0
   -3.2173   -2.2883    2.1182 O   0  0  0  0  0  0  0  0  0  0  0  0
   -4.1727    1.1630    2.1662 O   0  0  0  0  0  0  0  0  0  0  0  0
    2.7641   -1.7963    0.0939 N   0  0  0  0  0  0  0  0  0  0  0  0
    0.3578    1.9797    0.5289 C   0  0  0  0  0  0  0  0  0  0  0  0
    1.6461    2.5094   -0.1071 C   0  0  0  0  0  0  0  0  0  0  0  0
   -0.6490    3.0779    0.8669 C   0  0  0  0  0  0  0  0  0  0  0  0
    1.4104    3.2799   -1.4067 C   0  0  0  0  0  0  0  0  0  0  0  0
   -1.8979    2.5073    1.5259 C   0  0  0  0  0  0  0  0  0  0  0  0
    1.3748   -1.8004    0.3370 C   0  0  0  0  0  0  0  0  0  0  0  0
    3.7013   -1.6783    1.1935 C   0  0  0  0  0  0  0  0  0  0  0  0
    3.2727   -1.8959   -1.2597 C   0  0  0  0  0  0  0  0  0  0  0  0
   -1.3375   -1.8085    0.8117 C   0  0  0  0  0  0  0  0  0  0  0  0
    2.7236    3.7215   -2.0351 C   0  0  0  0  0  0  0  0  0  0  0  0
    0.8950   -1.7041    1.6433 C   0  0  0  0  0  0  0  0  0  0  0  0
    0.4806   -1.9009   -0.7289 C   0  0  0  0  0  0  0  0  0  0  0  0
   -0.4790   -1.7083    1.8836 C   0  0  0  0  0  0  0  0  0  0  0  0
   -0.8933   -1.9051   -0.4885 C   0  0  0  0  0  0  0  0  0  0  0  0
   -3.7592   -1.2943    0.0715 C   0  0  0  0  0  0  0  0  0  0  0  0
   -2.8113   -1.8164    1.0474 C   0  0  0  0  0  0  0  0  0  0  0  0
   -4.1650    0.0254    0.0707 C   0  0  0  0  0  0  0  0  0  0  0  0
    3.8406   -0.2258    1.6071 C   0  0  0  0  0  0  0  0  0  0  0  0
    3.2689   -3.3430   -1.7136 C   0  0  0  0  0  0  0  0  0  0  0  0
   -3.6374    0.9726    1.0851 C   0  0  0  0  0  0  0  0  0  0  0  0
   -4.2717   -2.1604   -0.8944 C   0  0  0  0  0  0  0  0  0  0  0  0
   -5.0636    0.5142   -0.8584 C   0  0  0  0  0  0  0  0  0  0  0  0
   -5.1803   -1.6892   -1.8420 C   0  0  0  0  0  0  0  0  0  0  0  0
   -5.5763   -0.3520   -1.8241 C   0  0  0  0  0  0  0  0  0  0  0  0
    0.6196    1.4346    1.4431 H   0  0  0  0  0  0  0  0  0  0  0  0
   -0.0955    1.2553   -0.1574 H   0  0  0  0  0  0  0  0  0  0  0  0
    2.1669    3.1530    0.6124 H   0  0  0  0  0  0  0  0  0  0  0  0
    2.3071    1.6583   -0.3083 H   0  0  0  0  0  0  0  0  0  0  0  0
   -0.9569    3.5906   -0.0508 H   0  0  0  0  0  0  0  0  0  0  0  0
   -0.1903    3.8202    1.5296 H   0  0  0  0  0  0  0  0  0  0  0  0
    0.8069    4.1742   -1.2214 H   0  0  0  0  0  0  0  0  0  0  0  0
    0.8610    2.6528   -2.1182 H   0  0  0  0  0  0  0  0  0  0  0  0
   -2.6019    3.3196    1.7400 H   0  0  0  0  0  0  0  0  0  0  0  0
   -1.6337    2.0064    2.4647 H   0  0  0  0  0  0  0  0  0  0  0  0
    4.6898   -2.0355    0.8762 H   0  0  0  0  0  0  0  0  0  0  0  0
    3.4440   -2.3225    2.0416 H   0  0  0  0  0  0  0  0  0  0  0  0
    4.3086   -1.5338   -1.2934 H   0  0  0  0  0  0  0  0  0  0  0  0
    2.7384   -1.2456   -1.9614 H   0  0  0  0  0  0  0  0  0  0  0  0
    3.3528    2.8584   -2.2757 H   0  0  0  0  0  0  0  0  0  0  0  0
    3.2818    4.3761   -1.3584 H   0  0  0  0  0  0  0  0  0  0  0  0
    2.5343    4.2722   -2.9619 H   0  0  0  0  0  0  0  0  0  0  0  0
    1.5411   -1.6248    2.5108 H   0  0  0  0  0  0  0  0  0  0  0  0
    0.7874   -1.9756   -1.7661 H   0  0  0  0  0  0  0  0  0  0  0  0
   -1.5585   -1.9906   -1.3401 H   0  0  0  0  0  0  0  0  0  0  0  0
    4.1941    0.3857    0.7698 H   0  0  0  0  0  0  0  0  0  0  0  0
    2.9022    0.2095    1.9604 H   0  0  0  0  0  0  0  0  0  0  0  0
    4.5730   -0.1360    2.4160 H   0  0  0  0  0  0  0  0  0  0  0  0
    3.8810   -3.9617   -1.0480 H   0  0  0  0  0  0  0  0  0  0  0  0
    2.2675   -3.7813   -1.7372 H   0  0  0  0  0  0  0  0  0  0  0  0
    3.6895   -3.4206   -2.7215 H   0  0  0  0  0  0  0  0  0  0  0  0
   -3.9743   -3.2057   -0.9182 H   0  0  0  0  0  0  0  0  0  0  0  0
   -5.3761    1.5544   -0.8503 H   0  0  0  0  0  0  0  0  0  0  0  0
   -5.5799   -2.3637   -2.5936 H   0  0  0  0  0  0  0  0  0  0  0  0
   -6.2836    0.0148   -2.5621 H   0  0  0  0  0  0  0  0  0  0  0  0
   -1.8907   -1.4854    3.1821 H   0  0  0  0  0  0  0  0  0  0  0  0
  1 10  1  0  0  0  0
  1 25  1  0  0  0  0
  2 18  1  0  0  0  0
  2 60  1  0  0  0  0
  3 21  2  0  0  0  0
  4 25  2  0  0  0  0
  5 11  1  0  0  0  0
  5 12  1  0  0  0  0
  5 13  1  0  0  0  0
  6  7  1  0  0  0  0
  6  8  1  0  0  0  0
  6 30  1  0  0  0  0
  6 31  1  0  0  0  0
  7  9  1  0  0  0  0
  7 32  1  0  0  0  0
  7 33  1  0  0  0  0
  8 10  1  0  0  0  0
  8 34  1  0  0  0  0
  8 35  1  0  0  0  0
  9 15  1  0  0  0  0
  9 36  1  0  0  0  0
  9 37  1  0  0  0  0
 10 38  1  0  0  0  0
 10 39  1  0  0  0  0
 11 16  2  0  0  0  0
 11 17  1  0  0  0  0
 12 23  1  0  0  0  0
 12 40  1  0  0  0  0
 12 41  1  0  0  0  0
 13 24  1  0  0  0  0
 13 42  1  0  0  0  0
 13 43  1  0  0  0  0
 14 18  2  0  0  0  0
 14 19  1  0  0  0  0
 14 21  1  0  0  0  0
 15 44  1  0  0  0  0
 15 45  1  0  0  0  0
 15 46  1  0  0  0  0
 16 18  1  0  0  0  0
 16 47  1  0  0  0  0
 17 19  2  0  0  0  0
 17 48  1  0  0  0  0
 19 49  1  0  0  0  0
 20 21  1  0  0  0  0
 20 22  2  0  0  0  0
 20 26  1  0  0  0  0
 22 25  1  0  0  0  0
 22 27  1  0  0  0  0
 23 50  1  0  0  0  0
 23 51  1  0  0  0  0
 23 52  1  0  0  0  0
 24 53  1  0  0  0  0
 24 54  1  0  0  0  0
 24 55  1  0  0  0  0
 26 28  2  0  0  0  0
 26 56  1  0  0  0  0
 27 29  2  0  0  0  0
 27 57  1  0  0  0  0
 28 29  1  0  0  0  0
 28 58  1  0  0  0  0
 29 59  1  0  0  0  0
M  END
