DB11256
 OpenBabel07062211533D

 58 60  0  0  1  0  0  0  0  0999 V2000
    6.9707    0.9726   -2.0155 O   0  0  0  0  0  0  0  0  0  0  0  0
   -3.9840    0.7246   -2.5401 O   0  0  0  0  0  0  0  0  0  0  0  0
   -8.3748    1.5171   -0.1945 O   0  0  0  0  0  0  0  0  0  0  0  0
   -6.6485    2.0135    1.1925 O   0  0  0  0  0  0  0  0  0  0  0  0
   -6.9517   -3.7421    1.5049 O   0  0  0  0  0  0  0  0  0  0  0  0
   -7.3571   -3.6283   -0.7245 O   0  0  0  0  0  0  0  0  0  0  0  0
    5.0242    1.2794    0.0932 N   0  0  0  0  0  0  0  0  0  0  0  0
    4.5747   -1.0030    1.5840 N   0  0  0  0  0  0  0  0  0  0  0  0
    1.4030    1.3900    0.7658 N   0  0  0  0  0  0  0  0  0  0  0  0
    6.1879   -2.1906    0.2494 N   0  0  0  0  0  0  0  0  0  0  0  0
    7.4286   -1.1882   -1.4750 N   0  0  0  0  0  0  0  0  0  0  0  0
   -4.8542    0.7889   -0.3916 N   0  0  0  0  0  0  0  0  0  0  0  0
    7.7519   -3.4392   -0.8783 N   0  0  0  0  0  0  0  0  0  0  0  0
    3.8174    1.2404    0.9556 C   0  0  2  0  0  0  0  0  0  0  0  0
    4.0123    0.2291    2.0956 C   0  0  0  0  0  0  0  0  0  0  0  0
    2.5870    0.9123    0.1053 C   0  0  0  0  0  0  0  0  0  0  0  0
    5.7292    0.0878   -0.1655 C   0  0  0  0  0  0  0  0  0  0  0  0
    5.4973   -1.0418    0.5528 C   0  0  0  0  0  0  0  0  0  0  0  0
    5.3033    2.5681   -0.5317 C   0  0  0  0  0  0  0  0  0  0  0  0
    6.7551    0.0085   -1.2880 C   0  0  0  0  0  0  0  0  0  0  0  0
    0.1194    1.2504    0.2532 C   0  0  0  0  0  0  0  0  0  0  0  0
    7.1355   -2.2234   -0.7377 C   0  0  0  0  0  0  0  0  0  0  0  0
   -0.9731    1.7470    0.9643 C   0  0  0  0  0  0  0  0  0  0  0  0
   -0.0769    0.6149   -0.9729 C   0  0  0  0  0  0  0  0  0  0  0  0
   -6.2402    0.6262   -0.7672 C   0  0  1  0  0  0  0  0  0  0  0  0
   -2.4582    0.9725   -0.7769 C   0  0  0  0  0  0  0  0  0  0  0  0
   -6.6615   -0.8458   -0.8542 C   0  0  0  0  0  0  0  0  0  0  0  0
   -2.2618    1.6082    0.4492 C   0  0  0  0  0  0  0  0  0  0  0  0
   -1.3657    0.4760   -1.4879 C   0  0  0  0  0  0  0  0  0  0  0  0
   -3.8020    0.8281   -1.3139 C   0  0  0  0  0  0  0  0  0  0  0  0
   -6.5778   -1.6431    0.4536 C   0  0  0  0  0  0  0  0  0  0  0  0
   -7.0751    1.4453    0.1955 C   0  0  0  0  0  0  0  0  0  0  0  0
   -6.9919   -3.0920    0.3124 C   0  0  0  0  0  0  0  0  0  0  0  0
    3.6833    2.2244    1.4253 H   0  0  0  0  0  0  0  0  0  0  0  0
    4.7106    0.6434    2.8331 H   0  0  0  0  0  0  0  0  0  0  0  0
    3.0723    0.0256    2.6191 H   0  0  0  0  0  0  0  0  0  0  0  0
    2.5246   -0.1666   -0.0809 H   0  0  0  0  0  0  0  0  0  0  0  0
    2.6759    1.4100   -0.8687 H   0  0  0  0  0  0  0  0  0  0  0  0
    4.4517   -1.8587    2.1145 H   0  0  0  0  0  0  0  0  0  0  0  0
    6.3633    2.8251   -0.4354 H   0  0  0  0  0  0  0  0  0  0  0  0
    5.0221    2.5514   -1.5895 H   0  0  0  0  0  0  0  0  0  0  0  0
    4.7418    3.3825   -0.0607 H   0  0  0  0  0  0  0  0  0  0  0  0
    1.4926    1.8460    1.6676 H   0  0  0  0  0  0  0  0  0  0  0  0
    5.9823   -3.0089    0.8114 H   0  0  0  0  0  0  0  0  0  0  0  0
   -0.8333    2.2505    1.9176 H   0  0  0  0  0  0  0  0  0  0  0  0
    0.7446    0.2138   -1.5589 H   0  0  0  0  0  0  0  0  0  0  0  0
   -6.3627    1.0845   -1.7568 H   0  0  0  0  0  0  0  0  0  0  0  0
   -7.6925   -0.9009   -1.2275 H   0  0  0  0  0  0  0  0  0  0  0  0
   -6.0413   -1.3478   -1.6085 H   0  0  0  0  0  0  0  0  0  0  0  0
   -3.0802    2.0368    1.0202 H   0  0  0  0  0  0  0  0  0  0  0  0
   -1.4981   -0.0260   -2.4428 H   0  0  0  0  0  0  0  0  0  0  0  0
   -4.6516    0.7958    0.6027 H   0  0  0  0  0  0  0  0  0  0  0  0
    8.4730   -3.5845   -1.5765 H   0  0  0  0  0  0  0  0  0  0  0  0
    7.5055   -4.2286   -0.2913 H   0  0  0  0  0  0  0  0  0  0  0  0
   -5.5481   -1.6306    0.8278 H   0  0  0  0  0  0  0  0  0  0  0  0
   -7.2306   -1.1845    1.2044 H   0  0  0  0  0  0  0  0  0  0  0  0
   -8.9114    2.0609    0.4206 H   0  0  0  0  0  0  0  0  0  0  0  0
   -7.2368   -4.6770    1.4211 H   0  0  0  0  0  0  0  0  0  0  0  0
  1 20  2  0  0  0  0
  2 30  2  0  0  0  0
  3 32  1  0  0  0  0
  3 57  1  0  0  0  0
  4 32  2  0  0  0  0
  5 33  1  0  0  0  0
  5 58  1  0  0  0  0
  6 33  2  0  0  0  0
  7 14  1  0  0  0  0
  7 17  1  0  0  0  0
  7 19  1  0  0  0  0
  8 15  1  0  0  0  0
  8 18  1  0  0  0  0
  8 39  1  0  0  0  0
  9 16  1  0  0  0  0
  9 21  1  0  0  0  0
  9 43  1  0  0  0  0
 10 18  1  0  0  0  0
 10 22  2  0  0  0  0
 10 44  1  0  0  0  0
 11 20  1  0  0  0  0
 11 22  1  0  0  0  0
 12 25  1  0  0  0  0
 12 30  1  0  0  0  0
 12 52  1  0  0  0  0
 13 22  1  0  0  0  0
 13 53  1  0  0  0  0
 13 54  1  0  0  0  0
 14 15  1  0  0  0  0
 14 16  1  0  0  0  0
 14 34  1  1  0  0  0
 15 35  1  0  0  0  0
 15 36  1  0  0  0  0
 16 37  1  0  0  0  0
 16 38  1  0  0  0  0
 17 18  2  0  0  0  0
 17 20  1  0  0  0  0
 19 40  1  0  0  0  0
 19 41  1  0  0  0  0
 19 42  1  0  0  0  0
 21 23  2  0  0  0  0
 21 24  1  0  0  0  0
 23 28  1  0  0  0  0
 23 45  1  0  0  0  0
 24 29  2  0  0  0  0
 24 46  1  0  0  0  0
 25 27  1  0  0  0  0
 25 32  1  0  0  0  0
 25 47  1  6  0  0  0
 26 28  2  0  0  0  0
 26 29  1  0  0  0  0
 26 30  1  0  0  0  0
 27 31  1  0  0  0  0
 27 48  1  0  0  0  0
 27 49  1  0  0  0  0
 28 50  1  0  0  0  0
 29 51  1  0  0  0  0
 31 33  1  0  0  0  0
 31 55  1  0  0  0  0
 31 56  1  0  0  0  0
M  END
