DB11712
 OpenBabel07062211533D

 64 68  0  0  1  0  0  0  0  0999 V2000
   -1.4838    1.5682    1.8524 F   0  0  0  0  0  0  0  0  0  0  0  0
   -8.2789    3.9025   -0.2808 F   0  0  0  0  0  0  0  0  0  0  0  0
   -6.3492    4.5976   -1.0433 F   0  0  0  0  0  0  0  0  0  0  0  0
   -2.7576   -2.8306   -0.2972 O   0  0  0  0  0  0  0  0  0  0  0  0
   -6.3880    2.8602    0.4131 O   0  0  0  0  0  0  0  0  0  0  0  0
   -7.2099    2.6610   -1.8489 O   0  0  0  0  0  0  0  0  0  0  0  0
    4.6741   -0.3500   -2.5715 O   0  0  0  0  0  0  0  0  0  0  0  0
    2.6793    3.0648    0.4174 O   0  0  0  0  0  0  0  0  0  0  0  0
    5.0147    4.2157   -0.6131 O   0  0  0  0  0  0  0  0  0  0  0  0
   -2.5358   -0.7403    0.7640 N   0  0  0  0  0  0  0  0  0  0  0  0
    2.9286   -0.0215    0.5561 N   0  0  0  0  0  0  0  0  0  0  0  0
   -4.7063   -1.7770    0.4574 C   0  0  0  0  0  0  0  0  0  0  0  0
   -5.2474   -2.2703    1.7671 C   0  0  0  0  0  0  0  0  0  0  0  0
   -5.4496   -3.0792    0.5194 C   0  0  0  0  0  0  0  0  0  0  0  0
   -5.3774   -0.6163   -0.1862 C   0  0  0  0  0  0  0  0  0  0  0  0
   -3.2239   -1.8477    0.2624 C   0  0  0  0  0  0  0  0  0  0  0  0
   -5.5262    0.5785    0.5223 C   0  0  0  0  0  0  0  0  0  0  0  0
   -5.8563   -0.7324   -1.5033 C   0  0  0  0  0  0  0  0  0  0  0  0
   -6.1551    1.6274   -0.1164 C   0  0  0  0  0  0  0  0  0  0  0  0
   -1.1609   -0.5001    0.7421 C   0  0  0  0  0  0  0  0  0  0  0  0
    4.7483   -1.4473   -0.3795 C   0  0  0  0  0  0  0  0  0  0  0  0
    3.3288   -1.1653   -0.0810 C   0  0  2  0  0  0  0  0  0  0  0  0
   -6.4896    0.3448   -2.1276 C   0  0  0  0  0  0  0  0  0  0  0  0
   -6.6241    1.5137   -1.4070 C   0  0  0  0  0  0  0  0  0  0  0  0
    1.5599   -0.0149    0.7052 C   0  0  0  0  0  0  0  0  0  0  0  0
    1.0795   -1.1986    0.1407 C   0  0  0  0  0  0  0  0  0  0  0  0
   -0.3077   -1.4447    0.1595 C   0  0  0  0  0  0  0  0  0  0  0  0
    2.2068   -1.9145   -0.3507 C   0  0  0  0  0  0  0  0  0  0  0  0
    3.8159    1.0300    1.0098 C   0  0  0  0  0  0  0  0  0  0  0  0
   -0.6531    0.6724    1.2983 C   0  0  0  0  0  0  0  0  0  0  0  0
    0.7191    0.9384    1.2906 C   0  0  0  0  0  0  0  0  0  0  0  0
    5.3844   -0.3743   -1.3379 C   0  0  0  0  0  0  0  0  0  0  0  0
    5.7058   -1.5268    0.8668 C   0  0  0  0  0  0  0  0  0  0  0  0
    4.9139   -2.8330   -1.0936 C   0  0  0  0  0  0  0  0  0  0  0  0
    3.7994    2.2453    0.0770 C   0  0  2  0  0  0  0  0  0  0  0  0
   -7.0525    3.4926   -0.6903 C   0  0  0  0  0  0  0  0  0  0  0  0
    5.0701    3.0764    0.2390 C   0  0  0  0  0  0  0  0  0  0  0  0
   -4.9085   -4.0154    0.4452 H   0  0  0  0  0  0  0  0  0  0  0  0
   -4.5526   -2.6537    2.5058 H   0  0  0  0  0  0  0  0  0  0  0  0
   -6.1239   -1.8014    2.1995 H   0  0  0  0  0  0  0  0  0  0  0  0
   -6.4601   -3.1403    0.1302 H   0  0  0  0  0  0  0  0  0  0  0  0
   -5.1732    0.6888    1.5420 H   0  0  0  0  0  0  0  0  0  0  0  0
   -5.7339   -1.6621   -2.0538 H   0  0  0  0  0  0  0  0  0  0  0  0
   -3.0827   -0.0173    1.2229 H   0  0  0  0  0  0  0  0  0  0  0  0
   -6.8589    0.2595   -3.1432 H   0  0  0  0  0  0  0  0  0  0  0  0
   -0.6335   -2.3711   -0.2882 H   0  0  0  0  0  0  0  0  0  0  0  0
    2.1771   -2.8755   -0.8458 H   0  0  0  0  0  0  0  0  0  0  0  0
    3.4670    1.3123    2.0122 H   0  0  0  0  0  0  0  0  0  0  0  0
    4.8189    0.6651    1.1628 H   0  0  0  0  0  0  0  0  0  0  0  0
    1.0921    1.8365    1.7658 H   0  0  0  0  0  0  0  0  0  0  0  0
    5.4306    0.6281   -0.9378 H   0  0  0  0  0  0  0  0  0  0  0  0
    6.4188   -0.6590   -1.5692 H   0  0  0  0  0  0  0  0  0  0  0  0
    4.3220   -2.8897   -2.0147 H   0  0  0  0  0  0  0  0  0  0  0  0
    5.1482   -1.7791    1.7758 H   0  0  0  0  0  0  0  0  0  0  0  0
    6.2713   -0.6075    1.0445 H   0  0  0  0  0  0  0  0  0  0  0  0
    6.4702   -2.3024    0.7351 H   0  0  0  0  0  0  0  0  0  0  0  0
    5.9581   -3.0204   -1.3707 H   0  0  0  0  0  0  0  0  0  0  0  0
    4.5919   -3.6524   -0.4397 H   0  0  0  0  0  0  0  0  0  0  0  0
    3.6638    1.9686   -0.9736 H   0  0  0  0  0  0  0  0  0  0  0  0
    5.9704    2.5073   -0.0069 H   0  0  0  0  0  0  0  0  0  0  0  0
    5.1597    3.4452    1.2668 H   0  0  0  0  0  0  0  0  0  0  0  0
    5.1163    0.3012   -3.1424 H   0  0  0  0  0  0  0  0  0  0  0  0
    2.8208    3.4111    1.3151 H   0  0  0  0  0  0  0  0  0  0  0  0
    5.8346    4.7187   -0.4702 H   0  0  0  0  0  0  0  0  0  0  0  0
  1 30  1  0  0  0  0
  2 36  1  0  0  0  0
  3 36  1  0  0  0  0
  4 16  2  0  0  0  0
  5 19  1  0  0  0  0
  5 36  1  0  0  0  0
  6 24  1  0  0  0  0
  6 36  1  0  0  0  0
  7 32  1  0  0  0  0
  7 62  1  0  0  0  0
  8 35  1  0  0  0  0
  8 63  1  0  0  0  0
  9 37  1  0  0  0  0
  9 64  1  0  0  0  0
 10 16  1  0  0  0  0
 10 20  1  0  0  0  0
 10 44  1  0  0  0  0
 11 22  1  0  0  0  0
 11 25  2  0  0  0  0
 11 29  1  0  0  0  0
 12 13  1  0  0  0  0
 12 14  1  0  0  0  0
 12 15  1  0  0  0  0
 12 16  1  0  0  0  0
 13 14  1  0  0  0  0
 13 39  1  0  0  0  0
 13 40  1  0  0  0  0
 14 38  1  0  0  0  0
 14 41  1  0  0  0  0
 15 17  2  0  0  0  0
 15 18  1  0  0  0  0
 17 19  1  0  0  0  0
 17 42  1  0  0  0  0
 18 23  2  0  0  0  0
 18 43  1  0  0  0  0
 19 24  2  0  0  0  0
 20 27  2  0  0  0  0
 20 30  1  0  0  0  0
 21 32  1  0  0  0  0
 21 33  1  0  0  0  0
 21 34  1  0  0  0  0
 22 21  1  6  0  0  0
 22 28  1  0  0  0  0
 23 24  1  0  0  0  0
 23 45  1  0  0  0  0
 25 26  1  0  0  0  0
 25 31  1  0  0  0  0
 26 27  1  0  0  0  0
 26 28  2  0  0  0  0
 27 46  1  0  0  0  0
 28 47  1  0  0  0  0
 29 35  1  0  0  0  0
 29 48  1  0  0  0  0
 29 49  1  0  0  0  0
 30 31  2  0  0  0  0
 31 50  1  0  0  0  0
 32 51  1  0  0  0  0
 32 52  1  0  0  0  0
 33 54  1  0  0  0  0
 33 55  1  0  0  0  0
 33 56  1  0  0  0  0
 34 53  1  0  0  0  0
 34 57  1  0  0  0  0
 34 58  1  0  0  0  0
 35 37  1  0  0  0  0
 35 59  1  6  0  0  0
 37 60  1  0  0  0  0
 37 61  1  0  0  0  0
M  END
