DB11609
 OpenBabel07062211533D

 47 48  0  0  0  0  0  0  0  0999 V2000
    0.8777   -0.1811    2.5767 O   0  0  0  0  0  0  0  0  0  0  0  0
   -3.1148   -0.0149   -1.2342 N   0  0  0  0  0  0  0  0  0  0  0  0
    0.5232    0.0983    0.1581 C   0  0  0  0  0  0  0  0  0  0  0  0
   -0.7097   -0.2077   -0.7663 C   0  0  0  0  0  0  0  0  0  0  0  0
    1.8531   -0.5001   -0.3938 C   0  0  0  0  0  0  0  0  0  0  0  0
    0.6270    1.6490    0.2529 C   0  0  0  0  0  0  0  0  0  0  0  0
   -2.0682    0.3150   -0.2695 C   0  0  0  0  0  0  0  0  0  0  0  0
    0.3370   -0.6063    1.5522 C   0  0  0  0  0  0  0  0  0  0  0  0
   -0.4423   -1.9213    1.5901 C   0  0  0  0  0  0  0  0  0  0  0  0
    2.9907   -0.2703    0.3196 C   0  0  0  0  0  0  0  0  0  0  0  0
    1.4343    2.2841   -0.6434 C   0  0  0  0  0  0  0  0  0  0  0  0
    1.7897   -1.2137   -1.5526 C   0  0  0  0  0  0  0  0  0  0  0  0
   -0.0965    2.2725    1.2258 C   0  0  0  0  0  0  0  0  0  0  0  0
    0.0167   -2.8375    2.7131 C   0  0  0  0  0  0  0  0  0  0  0  0
   -4.4146    0.4645   -0.7642 C   0  0  0  0  0  0  0  0  0  0  0  0
   -3.1583   -1.4581   -1.4699 C   0  0  0  0  0  0  0  0  0  0  0  0
    4.1806   -0.8056   -0.1739 C   0  0  0  0  0  0  0  0  0  0  0  0
    1.5273    3.6734   -0.5588 C   0  0  0  0  0  0  0  0  0  0  0  0
    2.9795   -1.7491   -2.0458 C   0  0  0  0  0  0  0  0  0  0  0  0
   -0.0036    3.6618    1.3102 C   0  0  0  0  0  0  0  0  0  0  0  0
    4.1749   -1.5450   -1.3564 C   0  0  0  0  0  0  0  0  0  0  0  0
    0.8083    4.3621    0.4178 C   0  0  0  0  0  0  0  0  0  0  0  0
   -0.5364    0.2366   -1.7585 H   0  0  0  0  0  0  0  0  0  0  0  0
   -0.7727   -1.2865   -0.9141 H   0  0  0  0  0  0  0  0  0  0  0  0
   -2.0391    1.4064   -0.2085 H   0  0  0  0  0  0  0  0  0  0  0  0
   -2.3156   -0.0594    0.7268 H   0  0  0  0  0  0  0  0  0  0  0  0
   -0.2775   -2.4736    0.6622 H   0  0  0  0  0  0  0  0  0  0  0  0
   -1.5072   -1.7166    1.7088 H   0  0  0  0  0  0  0  0  0  0  0  0
    3.0186    0.3094    1.2354 H   0  0  0  0  0  0  0  0  0  0  0  0
    1.9759    1.7921   -1.4423 H   0  0  0  0  0  0  0  0  0  0  0  0
    0.9014   -1.4009   -2.1388 H   0  0  0  0  0  0  0  0  0  0  0  0
   -0.7451    1.7538    1.9222 H   0  0  0  0  0  0  0  0  0  0  0  0
   -0.5231   -3.7889    2.6748 H   0  0  0  0  0  0  0  0  0  0  0  0
    1.0889   -3.0460    2.6353 H   0  0  0  0  0  0  0  0  0  0  0  0
   -0.1660   -2.3819    3.6918 H   0  0  0  0  0  0  0  0  0  0  0  0
   -4.3924    1.5488   -0.6069 H   0  0  0  0  0  0  0  0  0  0  0  0
   -4.7181   -0.0143    0.1741 H   0  0  0  0  0  0  0  0  0  0  0  0
   -5.1899    0.2752   -1.5149 H   0  0  0  0  0  0  0  0  0  0  0  0
   -4.0672   -1.7260   -2.0233 H   0  0  0  0  0  0  0  0  0  0  0  0
   -3.1599   -2.0387   -0.5401 H   0  0  0  0  0  0  0  0  0  0  0  0
   -2.3396   -1.7932   -2.1143 H   0  0  0  0  0  0  0  0  0  0  0  0
    5.1117   -0.6448    0.3615 H   0  0  0  0  0  0  0  0  0  0  0  0
    2.1515    4.2201   -1.2595 H   0  0  0  0  0  0  0  0  0  0  0  0
    2.9768   -2.3234   -2.9678 H   0  0  0  0  0  0  0  0  0  0  0  0
   -0.5664    4.1989    2.0682 H   0  0  0  0  0  0  0  0  0  0  0  0
    5.1015   -1.9610   -1.7413 H   0  0  0  0  0  0  0  0  0  0  0  0
    0.8781    5.4440    0.4817 H   0  0  0  0  0  0  0  0  0  0  0  0
  1  8  2  0  0  0  0
  2  7  1  0  0  0  0
  2 15  1  0  0  0  0
  2 16  1  0  0  0  0
  3  4  1  0  0  0  0
  3  5  1  0  0  0  0
  3  6  1  0  0  0  0
  3  8  1  0  0  0  0
  4  7  1  0  0  0  0
  4 23  1  0  0  0  0
  4 24  1  0  0  0  0
  5 10  2  0  0  0  0
  5 12  1  0  0  0  0
  6 11  2  0  0  0  0
  6 13  1  0  0  0  0
  7 25  1  0  0  0  0
  7 26  1  0  0  0  0
  8  9  1  0  0  0  0
  9 14  1  0  0  0  0
  9 27  1  0  0  0  0
  9 28  1  0  0  0  0
 10 17  1  0  0  0  0
 10 29  1  0  0  0  0
 11 18  1  0  0  0  0
 11 30  1  0  0  0  0
 12 19  2  0  0  0  0
 12 31  1  0  0  0  0
 13 20  2  0  0  0  0
 13 32  1  0  0  0  0
 14 33  1  0  0  0  0
 14 34  1  0  0  0  0
 14 35  1  0  0  0  0
 15 36  1  0  0  0  0
 15 37  1  0  0  0  0
 15 38  1  0  0  0  0
 16 39  1  0  0  0  0
 16 40  1  0  0  0  0
 16 41  1  0  0  0  0
 17 21  2  0  0  0  0
 17 42  1  0  0  0  0
 18 22  2  0  0  0  0
 18 43  1  0  0  0  0
 19 21  1  0  0  0  0
 19 44  1  0  0  0  0
 20 22  1  0  0  0  0
 20 45  1  0  0  0  0
 21 46  1  0  0  0  0
 22 47  1  0  0  0  0
M  END
