DB11855
 OpenBabel07062211533D

 87 91  0  0  0  0  0  0  0  0999 V2000
   -2.0268   -1.2062    1.4618 O   0  0  0  0  0  0  0  0  0  0  0  0
    5.0490    5.7464    0.8342 O   0  0  0  0  0  0  0  0  0  0  0  0
    3.7213   -4.5297   -2.8090 O   0  0  0  0  0  0  0  0  0  0  0  0
   -2.1512    0.9025    2.3383 O   0  0  0  0  0  0  0  0  0  0  0  0
    1.8111   -2.7666    2.3380 N   0  0  0  0  0  0  0  0  0  0  0  0
    2.6670    2.5170   -1.6072 N   0  0  0  0  0  0  0  0  0  0  0  0
    3.6901   -4.3644   -0.4774 N   0  0  0  0  0  0  0  0  0  0  0  0
    3.2356    6.1247    2.1992 N   0  0  0  0  0  0  0  0  0  0  0  0
   -3.7649    0.0783    0.8560 N   0  0  0  0  0  0  0  0  0  0  0  0
    2.9521    4.7779    0.2247 C   0  0  0  0  0  0  0  0  0  0  0  0
    3.4151    4.8442   -1.2293 C   0  0  0  0  0  0  0  0  0  0  0  0
    2.9397    3.3305    0.7131 C   0  0  0  0  0  0  0  0  0  0  0  0
   -0.8227   -1.4299    2.1846 C   0  0  0  0  0  0  0  0  0  0  0  0
    0.3591   -0.9736    1.3341 C   0  0  0  0  0  0  0  0  0  0  0  0
   -0.6932   -2.9097    2.5361 C   0  0  0  0  0  0  0  0  0  0  0  0
    2.6040    3.8950   -2.1135 C   0  0  0  0  0  0  0  0  0  0  0  0
    2.1457    2.4313   -0.2360 C   0  0  0  0  0  0  0  0  0  0  0  0
    1.6903   -1.3444    1.9900 C   0  0  0  0  0  0  0  0  0  0  0  0
    0.6732   -3.2165    3.1513 C   0  0  0  0  0  0  0  0  0  0  0  0
    2.0156   -3.6078    1.1610 C   0  0  0  0  0  0  0  0  0  0  0  0
    1.9315    1.6131   -2.4914 C   0  0  0  0  0  0  0  0  0  0  0  0
    3.4658   -3.5367    0.7060 C   0  0  0  0  0  0  0  0  0  0  0  0
    3.8580    5.5934    1.0944 C   0  0  0  0  0  0  0  0  0  0  0  0
    2.3536    0.1800   -2.3053 C   0  0  0  0  0  0  0  0  0  0  0  0
    3.7077   -0.1438   -2.2203 C   0  0  0  0  0  0  0  0  0  0  0  0
    1.3894   -0.8245   -2.2183 C   0  0  0  0  0  0  0  0  0  0  0  0
    3.5404   -3.8611   -1.7827 C   0  0  0  0  0  0  0  0  0  0  0  0
    3.1338   -2.4762   -1.9608 C   0  0  0  0  0  0  0  0  0  0  0  0
   -2.6154    0.0252    1.6204 C   0  0  0  0  0  0  0  0  0  0  0  0
    4.0977   -1.4717   -2.0480 C   0  0  0  0  0  0  0  0  0  0  0  0
    1.7795   -2.1527   -2.0459 C   0  0  0  0  0  0  0  0  0  0  0  0
    4.0786   -5.7435   -0.2180 C   0  0  0  0  0  0  0  0  0  0  0  0
   -4.6732    1.1531    0.7236 C   0  0  0  0  0  0  0  0  0  0  0  0
   -5.7996    1.0553   -0.0934 C   0  0  0  0  0  0  0  0  0  0  0  0
   -4.4249    2.3295    1.4310 C   0  0  0  0  0  0  0  0  0  0  0  0
   -6.0852   -0.1540   -0.8416 C   0  0  0  0  0  0  0  0  0  0  0  0
   -6.6775    2.1337   -0.2028 C   0  0  0  0  0  0  0  0  0  0  0  0
   -5.3029    3.4078    1.3215 C   0  0  0  0  0  0  0  0  0  0  0  0
   -6.4291    3.3099    0.5047 C   0  0  0  0  0  0  0  0  0  0  0  0
   -5.5833   -0.3096   -2.1338 C   0  0  0  0  0  0  0  0  0  0  0  0
   -6.8614   -1.1618   -0.2689 C   0  0  0  0  0  0  0  0  0  0  0  0
   -5.8577   -1.4727   -2.8533 C   0  0  0  0  0  0  0  0  0  0  0  0
   -7.1356   -2.3248   -0.9885 C   0  0  0  0  0  0  0  0  0  0  0  0
   -6.6338   -2.4802   -2.2807 C   0  0  0  0  0  0  0  0  0  0  0  0
    1.9339    5.1855    0.2824 H   0  0  0  0  0  0  0  0  0  0  0  0
    4.4779    4.5794   -1.3126 H   0  0  0  0  0  0  0  0  0  0  0  0
    3.3212    5.8699   -1.6071 H   0  0  0  0  0  0  0  0  0  0  0  0
    2.5034    3.2742    1.7181 H   0  0  0  0  0  0  0  0  0  0  0  0
    3.9670    2.9514    0.8024 H   0  0  0  0  0  0  0  0  0  0  0  0
   -0.8292   -0.8721    3.1311 H   0  0  0  0  0  0  0  0  0  0  0  0
    0.3123    0.1114    1.1841 H   0  0  0  0  0  0  0  0  0  0  0  0
    0.2747   -1.4106    0.3354 H   0  0  0  0  0  0  0  0  0  0  0  0
   -0.8546   -3.5214    1.6392 H   0  0  0  0  0  0  0  0  0  0  0  0
   -1.4914   -3.1933    3.2330 H   0  0  0  0  0  0  0  0  0  0  0  0
    3.0209    3.9403   -3.1270 H   0  0  0  0  0  0  0  0  0  0  0  0
    1.5641    4.2423   -2.1725 H   0  0  0  0  0  0  0  0  0  0  0  0
    1.0841    2.7103   -0.2006 H   0  0  0  0  0  0  0  0  0  0  0  0
    2.2240    1.4058    0.1419 H   0  0  0  0  0  0  0  0  0  0  0  0
    2.5158   -1.0115    1.3524 H   0  0  0  0  0  0  0  0  0  0  0  0
    1.7974   -0.7611    2.9143 H   0  0  0  0  0  0  0  0  0  0  0  0
    0.7373   -2.7217    4.1294 H   0  0  0  0  0  0  0  0  0  0  0  0
    0.7529   -4.2890    3.3673 H   0  0  0  0  0  0  0  0  0  0  0  0
    1.3131   -3.3818    0.3558 H   0  0  0  0  0  0  0  0  0  0  0  0
    1.8174   -4.6555    1.4244 H   0  0  0  0  0  0  0  0  0  0  0  0
    0.8471    1.7309   -2.3640 H   0  0  0  0  0  0  0  0  0  0  0  0
    2.1443    1.8514   -3.5427 H   0  0  0  0  0  0  0  0  0  0  0  0
    4.1349   -3.8879    1.5020 H   0  0  0  0  0  0  0  0  0  0  0  0
    3.7725   -2.5113    0.4905 H   0  0  0  0  0  0  0  0  0  0  0  0
    4.4760    0.6209   -2.2976 H   0  0  0  0  0  0  0  0  0  0  0  0
    0.3312   -0.5869   -2.2857 H   0  0  0  0  0  0  0  0  0  0  0  0
    3.7501    6.6919    2.8646 H   0  0  0  0  0  0  0  0  0  0  0  0
    2.2519    5.9719    2.3972 H   0  0  0  0  0  0  0  0  0  0  0  0
    5.1556   -1.7132   -1.9855 H   0  0  0  0  0  0  0  0  0  0  0  0
    1.0190   -2.9271   -1.9903 H   0  0  0  0  0  0  0  0  0  0  0  0
    3.3042   -6.2311    0.3799 H   0  0  0  0  0  0  0  0  0  0  0  0
    4.2055   -6.2956   -1.1527 H   0  0  0  0  0  0  0  0  0  0  0  0
    5.0266   -5.7487    0.3276 H   0  0  0  0  0  0  0  0  0  0  0  0
   -3.9749   -0.7636    0.3275 H   0  0  0  0  0  0  0  0  0  0  0  0
   -3.5793    2.4895    2.0837 H   0  0  0  0  0  0  0  0  0  0  0  0
   -7.5608    2.0762   -0.8347 H   0  0  0  0  0  0  0  0  0  0  0  0
   -5.1109    4.3245    1.8718 H   0  0  0  0  0  0  0  0  0  0  0  0
   -7.1126    4.1496    0.4196 H   0  0  0  0  0  0  0  0  0  0  0  0
   -4.9759    0.4657   -2.5947 H   0  0  0  0  0  0  0  0  0  0  0  0
   -7.2598   -1.0569    0.7375 H   0  0  0  0  0  0  0  0  0  0  0  0
   -5.4666   -1.5939   -3.8593 H   0  0  0  0  0  0  0  0  0  0  0  0
   -7.7396   -3.1097   -0.5427 H   0  0  0  0  0  0  0  0  0  0  0  0
   -6.8471   -3.3859   -2.8409 H   0  0  0  0  0  0  0  0  0  0  0  0
  1 13  1  0  0  0  0
  1 29  1  0  0  0  0
  2 23  2  0  0  0  0
  3 27  2  0  0  0  0
  4 29  2  0  0  0  0
  5 18  1  0  0  0  0
  5 19  1  0  0  0  0
  5 20  1  0  0  0  0
  6 16  1  0  0  0  0
  6 17  1  0  0  0  0
  6 21  1  0  0  0  0
  7 22  1  0  0  0  0
  7 27  1  0  0  0  0
  7 32  1  0  0  0  0
  8 23  1  0  0  0  0
  8 71  1  0  0  0  0
  8 72  1  0  0  0  0
  9 29  1  0  0  0  0
  9 33  1  0  0  0  0
  9 78  1  0  0  0  0
 10 11  1  0  0  0  0
 10 12  1  0  0  0  0
 10 23  1  0  0  0  0
 10 45  1  0  0  0  0
 11 16  1  0  0  0  0
 11 46  1  0  0  0  0
 11 47  1  0  0  0  0
 12 17  1  0  0  0  0
 12 48  1  0  0  0  0
 12 49  1  0  0  0  0
 13 14  1  0  0  0  0
 13 15  1  0  0  0  0
 13 50  1  0  0  0  0
 14 18  1  0  0  0  0
 14 51  1  0  0  0  0
 14 52  1  0  0  0  0
 15 19  1  0  0  0  0
 15 53  1  0  0  0  0
 15 54  1  0  0  0  0
 16 55  1  0  0  0  0
 16 56  1  0  0  0  0
 17 57  1  0  0  0  0
 17 58  1  0  0  0  0
 18 59  1  0  0  0  0
 18 60  1  0  0  0  0
 19 61  1  0  0  0  0
 19 62  1  0  0  0  0
 20 22  1  0  0  0  0
 20 63  1  0  0  0  0
 20 64  1  0  0  0  0
 21 24  1  0  0  0  0
 21 65  1  0  0  0  0
 21 66  1  0  0  0  0
 22 67  1  0  0  0  0
 22 68  1  0  0  0  0
 24 25  2  0  0  0  0
 24 26  1  0  0  0  0
 25 30  1  0  0  0  0
 25 69  1  0  0  0  0
 26 31  2  0  0  0  0
 26 70  1  0  0  0  0
 27 28  1  0  0  0  0
 28 30  2  0  0  0  0
 28 31  1  0  0  0  0
 30 73  1  0  0  0  0
 31 74  1  0  0  0  0
 32 75  1  0  0  0  0
 32 76  1  0  0  0  0
 32 77  1  0  0  0  0
 33 34  2  0  0  0  0
 33 35  1  0  0  0  0
 34 36  1  0  0  0  0
 34 37  1  0  0  0  0
 35 38  2  0  0  0  0
 35 79  1  0  0  0  0
 36 40  2  0  0  0  0
 36 41  1  0  0  0  0
 37 39  2  0  0  0  0
 37 80  1  0  0  0  0
 38 39  1  0  0  0  0
 38 81  1  0  0  0  0
 39 82  1  0  0  0  0
 40 42  1  0  0  0  0
 40 83  1  0  0  0  0
 41 43  2  0  0  0  0
 41 84  1  0  0  0  0
 42 44  2  0  0  0  0
 42 85  1  0  0  0  0
 43 44  1  0  0  0  0
 43 86  1  0  0  0  0
 44 87  1  0  0  0  0
M  END
