DB11750
 OpenBabel07062211533D

 56 59  0  0  1  0  0  0  0  0999 V2000
    5.8214   -2.5074    1.5065 Cl  0  0  0  0  0  0  0  0  0  0  0  0
   -1.5661   -0.3616    1.5820 F   0  0  0  0  0  0  0  0  0  0  0  0
    2.7998   -0.6708    1.9400 O   0  0  0  0  0  0  0  0  0  0  0  0
   -0.8427   -2.1185   -1.4692 O   0  0  0  0  0  0  0  0  0  0  0  0
    3.8172   -1.9175   -0.8813 O   0  0  0  0  0  0  0  0  0  0  0  0
   -6.3883    0.0729    2.1767 O   0  0  0  0  0  0  0  0  0  0  0  0
    1.4952   -0.5394   -0.1321 C   0  0  1  0  0  0  0  0  0  0  0  0
    0.7271    0.7213    0.3220 C   0  0  2  0  0  0  0  0  0  0  0  0
   -0.6910    0.8152   -0.2623 C   0  0  1  0  0  0  0  0  0  0  0  0
   -1.5184   -0.4342    0.1981 C   0  0  1  0  0  0  0  0  0  0  0  0
    2.8698   -0.2845    0.5612 C   0  0  1  0  0  0  0  0  0  0  0  0
    1.7165    1.8470    0.0373 C   0  0  0  0  0  0  0  0  0  0  0  0
    0.7020   -1.7653    0.3688 C   0  0  0  0  0  0  0  0  0  0  0  0
    3.0750    1.2628    0.5031 C   0  0  2  0  0  0  0  0  0  0  0  0
   -0.7728   -1.7709   -0.0952 C   0  0  2  0  0  0  0  0  0  0  0  0
   -3.0216   -0.3596   -0.2820 C   0  0  1  0  0  0  0  0  0  0  0  0
   -1.3674    2.1251    0.1825 C   0  0  0  0  0  0  0  0  0  0  0  0
    1.6905   -0.6176   -1.6716 C   0  0  0  0  0  0  0  0  0  0  0  0
   -2.8187    2.2107   -0.2741 C   0  0  0  0  0  0  0  0  0  0  0  0
   -3.5831    0.9919    0.1756 C   0  0  0  0  0  0  0  0  0  0  0  0
    3.9938   -1.1412    0.0564 C   0  0  0  0  0  0  0  0  0  0  0  0
    4.2122    1.7717   -0.3773 C   0  0  0  0  0  0  0  0  0  0  0  0
   -3.1993   -0.4551   -1.8148 C   0  0  0  0  0  0  0  0  0  0  0  0
   -3.8191   -1.5137    0.3082 C   0  0  0  0  0  0  0  0  0  0  0  0
   -4.6604    1.1237    0.9652 C   0  0  0  0  0  0  0  0  0  0  0  0
    5.3153   -0.9788    0.7717 C   0  0  0  0  0  0  0  0  0  0  0  0
   -4.8914   -1.3891    1.0964 C   0  0  0  0  0  0  0  0  0  0  0  0
   -5.3954   -0.0546    1.4684 C   0  0  0  0  0  0  0  0  0  0  0  0
    0.6120    0.6869    1.4178 H   0  0  0  0  0  0  0  0  0  0  0  0
   -0.6424    0.8399   -1.3542 H   0  0  0  0  0  0  0  0  0  0  0  0
    1.7269    2.1020   -1.0288 H   0  0  0  0  0  0  0  0  0  0  0  0
    1.4743    2.7584    0.5940 H   0  0  0  0  0  0  0  0  0  0  0  0
    0.6825   -1.7851    1.4649 H   0  0  0  0  0  0  0  0  0  0  0  0
    1.1978   -2.6869    0.0407 H   0  0  0  0  0  0  0  0  0  0  0  0
    3.2576    1.6357    1.5206 H   0  0  0  0  0  0  0  0  0  0  0  0
   -1.2548   -2.5774    0.4710 H   0  0  0  0  0  0  0  0  0  0  0  0
   -0.8228    2.9854   -0.2244 H   0  0  0  0  0  0  0  0  0  0  0  0
   -1.3250    2.2145    1.2761 H   0  0  0  0  0  0  0  0  0  0  0  0
    2.4990    0.0211   -2.0368 H   0  0  0  0  0  0  0  0  0  0  0  0
    1.8806   -1.6403   -2.0134 H   0  0  0  0  0  0  0  0  0  0  0  0
    0.8005   -0.3043   -2.2220 H   0  0  0  0  0  0  0  0  0  0  0  0
   -2.8664    2.2973   -1.3658 H   0  0  0  0  0  0  0  0  0  0  0  0
   -3.2618    3.1315    0.1246 H   0  0  0  0  0  0  0  0  0  0  0  0
    5.1896    1.5701    0.0671 H   0  0  0  0  0  0  0  0  0  0  0  0
    4.1908    1.3337   -1.3788 H   0  0  0  0  0  0  0  0  0  0  0  0
    4.1434    2.8595   -0.4925 H   0  0  0  0  0  0  0  0  0  0  0  0
   -2.4896    0.1723   -2.3620 H   0  0  0  0  0  0  0  0  0  0  0  0
   -3.0897   -1.4775   -2.1900 H   0  0  0  0  0  0  0  0  0  0  0  0
   -4.2057   -0.1335   -2.1147 H   0  0  0  0  0  0  0  0  0  0  0  0
    2.7005   -1.6365    1.9928 H   0  0  0  0  0  0  0  0  0  0  0  0
   -3.5090   -2.5238    0.0493 H   0  0  0  0  0  0  0  0  0  0  0  0
   -1.4871   -2.8411   -1.5581 H   0  0  0  0  0  0  0  0  0  0  0  0
   -5.0242    2.0968    1.2780 H   0  0  0  0  0  0  0  0  0  0  0  0
    5.2683   -0.2311    1.5662 H   0  0  0  0  0  0  0  0  0  0  0  0
    6.0748   -0.6722    0.0471 H   0  0  0  0  0  0  0  0  0  0  0  0
   -5.4200   -2.2579    1.4711 H   0  0  0  0  0  0  0  0  0  0  0  0
  1 26  1  0  0  0  0
  2 10  1  0  0  0  0
  3 11  1  0  0  0  0
  3 50  1  0  0  0  0
  4 15  1  0  0  0  0
  4 52  1  0  0  0  0
  5 21  2  0  0  0  0
  6 28  2  0  0  0  0
  7  8  1  1  0  0  0
  7 13  1  0  0  0  0
  7 18  1  0  0  0  0
  8  9  1  6  0  0  0
  8 12  1  0  0  0  0
  8 29  1  0  0  0  0
  9 10  1  1  0  0  0
  9 17  1  0  0  0  0
  9 30  1  0  0  0  0
 10 15  1  6  0  0  0
 11  7  1  6  0  0  0
 11 21  1  0  0  0  0
 12 14  1  0  0  0  0
 12 31  1  0  0  0  0
 12 32  1  0  0  0  0
 13 15  1  0  0  0  0
 13 33  1  0  0  0  0
 13 34  1  0  0  0  0
 14 11  1  6  0  0  0
 14 22  1  0  0  0  0
 14 35  1  0  0  0  0
 15 36  1  1  0  0  0
 16 10  1  1  0  0  0
 16 20  1  0  0  0  0
 16 23  1  0  0  0  0
 16 24  1  0  0  0  0
 17 19  1  0  0  0  0
 17 37  1  0  0  0  0
 17 38  1  0  0  0  0
 18 39  1  0  0  0  0
 18 40  1  0  0  0  0
 18 41  1  0  0  0  0
 19 20  1  0  0  0  0
 19 42  1  0  0  0  0
 19 43  1  0  0  0  0
 20 25  2  0  0  0  0
 21 26  1  0  0  0  0
 22 44  1  0  0  0  0
 22 45  1  0  0  0  0
 22 46  1  0  0  0  0
 23 47  1  0  0  0  0
 23 48  1  0  0  0  0
 23 49  1  0  0  0  0
 24 27  2  0  0  0  0
 24 51  1  0  0  0  0
 25 28  1  0  0  0  0
 25 53  1  0  0  0  0
 26 54  1  0  0  0  0
 26 55  1  0  0  0  0
 27 28  1  0  0  0  0
 27 56  1  0  0  0  0
M  END
