DB11718
 OpenBabel07062211533D

 63 65  0  0  1  0  0  0  0  0999 V2000
    1.4285   -0.3129   -3.8083 Cl  0  0  0  0  0  0  0  0  0  0  0  0
    1.8316   -3.9111    0.7416 S   0  0  0  0  0  0  0  0  0  0  0  0
   -1.7987   -2.4167    0.5981 F   0  0  0  0  0  0  0  0  0  0  0  0
    5.6443    1.0498   -1.6581 O   0  0  0  0  0  0  0  0  0  0  0  0
    2.1413   -5.2956    1.0464 O   0  0  0  0  0  0  0  0  0  0  0  0
    2.8512   -3.0271    0.2125 O   0  0  0  0  0  0  0  0  0  0  0  0
    4.5118   -0.8475   -1.0313 O   0  0  0  0  0  0  0  0  0  0  0  0
   -4.5738    0.4103   -0.1166 N   0  0  0  0  0  0  0  0  0  0  0  0
   -3.7739   -0.5502   -0.6104 N   0  0  0  0  0  0  0  0  0  0  0  0
    1.8942    2.2061    0.9756 N   0  0  0  0  0  0  0  0  0  0  0  0
   -0.3317    1.7734    0.4692 N   0  0  0  0  0  0  0  0  0  0  0  0
    4.5207    1.0629    0.2853 N   0  0  0  0  0  0  0  0  0  0  0  0
    0.4152   -3.8731   -0.2376 N   0  0  0  0  0  0  0  0  0  0  0  0
    0.4952    4.0306    0.6396 N   0  0  0  0  0  0  0  0  0  0  0  0
   -5.9928    0.1713   -0.0034 C   0  0  0  0  0  0  0  0  0  0  0  0
   -2.5885    1.3184   -0.0442 C   0  0  0  0  0  0  0  0  0  0  0  0
   -2.5624    0.0103   -0.5636 C   0  0  0  0  0  0  0  0  0  0  0  0
   -3.9130    1.5497    0.2375 C   0  0  0  0  0  0  0  0  0  0  0  0
   -1.4089   -0.7236   -1.0189 C   0  0  0  0  0  0  0  0  0  0  0  0
   -6.6344   -0.0684   -1.3723 C   0  0  0  0  0  0  0  0  0  0  0  0
   -6.2945   -0.9872    0.9503 C   0  0  0  0  0  0  0  0  0  0  0  0
   -1.5496    2.2804    0.1862 C   0  0  0  0  0  0  0  0  0  0  0  0
    3.6958    0.5758    1.3662 C   0  0  2  0  0  0  0  0  0  0  0  0
    2.2124    0.7993    1.0603 C   0  0  0  0  0  0  0  0  0  0  0  0
   -1.0612   -1.9308   -0.4130 C   0  0  0  0  0  0  0  0  0  0  0  0
   -0.6394   -0.2234   -2.0693 C   0  0  0  0  0  0  0  0  0  0  0  0
    0.0565   -2.6376   -0.8570 C   0  0  0  0  0  0  0  0  0  0  0  0
    0.6305    2.6913    0.6819 C   0  0  0  0  0  0  0  0  0  0  0  0
   -1.8194    3.6319    0.1133 C   0  0  0  0  0  0  0  0  0  0  0  0
    4.1275    1.1891    2.6951 C   0  0  0  0  0  0  0  0  0  0  0  0
    0.4780   -0.9303   -2.5134 C   0  0  0  0  0  0  0  0  0  0  0  0
    0.8260   -2.1375   -1.9073 C   0  0  0  0  0  0  0  0  0  0  0  0
   -0.7480    4.4684    0.3515 C   0  0  0  0  0  0  0  0  0  0  0  0
    4.8581    0.3102   -0.8200 C   0  0  0  0  0  0  0  0  0  0  0  0
    1.1995   -3.1827    2.2364 C   0  0  0  0  0  0  0  0  0  0  0  0
    6.0728    0.3910   -2.8552 C   0  0  0  0  0  0  0  0  0  0  0  0
   -6.4356    1.0812    0.4213 H   0  0  0  0  0  0  0  0  0  0  0  0
   -4.4367    2.3992    0.6562 H   0  0  0  0  0  0  0  0  0  0  0  0
   -7.7215   -0.1609   -1.2786 H   0  0  0  0  0  0  0  0  0  0  0  0
   -6.4239    0.7642   -2.0527 H   0  0  0  0  0  0  0  0  0  0  0  0
   -5.8407   -0.8122    1.9321 H   0  0  0  0  0  0  0  0  0  0  0  0
   -7.3746   -1.0990    1.0929 H   0  0  0  0  0  0  0  0  0  0  0  0
   -5.9053   -1.9378    0.5691 H   0  0  0  0  0  0  0  0  0  0  0  0
   -6.2580   -0.9842   -1.8414 H   0  0  0  0  0  0  0  0  0  0  0  0
    3.8539   -0.5079    1.4358 H   0  0  0  0  0  0  0  0  0  0  0  0
    1.6093    0.3327    1.8486 H   0  0  0  0  0  0  0  0  0  0  0  0
    1.9590    0.3061    0.1143 H   0  0  0  0  0  0  0  0  0  0  0  0
   -0.9090    0.7147   -2.5509 H   0  0  0  0  0  0  0  0  0  0  0  0
    2.6268    2.8955    1.0974 H   0  0  0  0  0  0  0  0  0  0  0  0
   -2.7918    4.0441   -0.1252 H   0  0  0  0  0  0  0  0  0  0  0  0
    5.1661    0.9204    2.9190 H   0  0  0  0  0  0  0  0  0  0  0  0
    3.5011    0.8241    3.5156 H   0  0  0  0  0  0  0  0  0  0  0  0
    4.0755    2.2827    2.6826 H   0  0  0  0  0  0  0  0  0  0  0  0
    1.6909   -2.6932   -2.2626 H   0  0  0  0  0  0  0  0  0  0  0  0
    4.8359    2.0281    0.3143 H   0  0  0  0  0  0  0  0  0  0  0  0
   -0.3873   -4.3965    0.1375 H   0  0  0  0  0  0  0  0  0  0  0  0
   -0.8622    5.5465    0.3132 H   0  0  0  0  0  0  0  0  0  0  0  0
    0.3544   -3.7753    2.5916 H   0  0  0  0  0  0  0  0  0  0  0  0
    0.9019   -2.1521    2.0385 H   0  0  0  0  0  0  0  0  0  0  0  0
    1.9992   -3.1965    2.9804 H   0  0  0  0  0  0  0  0  0  0  0  0
    6.6787   -0.4860   -2.6081 H   0  0  0  0  0  0  0  0  0  0  0  0
    5.2070    0.1057   -3.4605 H   0  0  0  0  0  0  0  0  0  0  0  0
    6.6860    1.0919   -3.4278 H   0  0  0  0  0  0  0  0  0  0  0  0
  1 31  1  0  0  0  0
  2  5  2  0  0  0  0
  2  6  2  0  0  0  0
  2 13  1  0  0  0  0
  2 35  1  0  0  0  0
  3 25  1  0  0  0  0
  4 34  1  0  0  0  0
  4 36  1  0  0  0  0
  7 34  2  0  0  0  0
  8  9  1  0  0  0  0
  8 15  1  0  0  0  0
  8 18  2  0  0  0  0
  9 17  1  0  0  0  0
 10 24  1  0  0  0  0
 10 28  1  0  0  0  0
 10 49  1  0  0  0  0
 11 22  2  0  0  0  0
 11 28  1  0  0  0  0
 12 23  1  0  0  0  0
 12 34  1  0  0  0  0
 12 55  1  0  0  0  0
 13 27  1  0  0  0  0
 13 56  1  0  0  0  0
 14 28  2  0  0  0  0
 14 33  1  0  0  0  0
 15 20  1  0  0  0  0
 15 21  1  0  0  0  0
 15 37  1  0  0  0  0
 16 17  2  0  0  0  0
 16 18  1  0  0  0  0
 16 22  1  0  0  0  0
 17 19  1  0  0  0  0
 18 38  1  0  0  0  0
 19 25  2  0  0  0  0
 19 26  1  0  0  0  0
 20 39  1  0  0  0  0
 20 40  1  0  0  0  0
 20 44  1  0  0  0  0
 21 41  1  0  0  0  0
 21 42  1  0  0  0  0
 21 43  1  0  0  0  0
 22 29  1  0  0  0  0
 23 24  1  0  0  0  0
 23 30  1  0  0  0  0
 23 45  1  1  0  0  0
 24 46  1  0  0  0  0
 24 47  1  0  0  0  0
 25 27  1  0  0  0  0
 26 31  2  0  0  0  0
 26 48  1  0  0  0  0
 27 32  2  0  0  0  0
 29 33  2  0  0  0  0
 29 50  1  0  0  0  0
 30 51  1  0  0  0  0
 30 52  1  0  0  0  0
 30 53  1  0  0  0  0
 31 32  1  0  0  0  0
 32 54  1  0  0  0  0
 33 57  1  0  0  0  0
 35 58  1  0  0  0  0
 35 59  1  0  0  0  0
 35 60  1  0  0  0  0
 36 61  1  0  0  0  0
 36 62  1  0  0  0  0
 36 63  1  0  0  0  0
M  END
