DB11591
 OpenBabel07062211533D

 71 74  0  0  1  0  0  0  0  0999 V2000
    6.2865   -2.0169    0.3341 O   0  0  0  0  0  0  0  0  0  0  0  0
   -9.9119   -0.6865    1.7902 O   0  0  0  0  0  0  0  0  0  0  0  0
   -7.7811   -1.3371    2.1398 O   0  0  0  0  0  0  0  0  0  0  0  0
   -0.4975    0.8896    0.1715 N   0  0  0  0  0  0  0  0  0  0  0  0
    4.8841    0.4986    0.6731 N   0  0  0  0  0  0  0  0  0  0  0  0
    4.2075    2.0291   -0.7899 N   0  0  0  0  0  0  0  0  0  0  0  0
    2.4096    0.5282    0.1570 C   0  0  0  0  0  0  0  0  0  0  0  0
    1.5915    0.6573   -1.1364 C   0  0  0  0  0  0  0  0  0  0  0  0
    1.6731    1.2141    1.3170 C   0  0  0  0  0  0  0  0  0  0  0  0
    0.1549    0.1694   -0.9307 C   0  0  0  0  0  0  0  0  0  0  0  0
    0.2334    0.7061    1.4331 C   0  0  0  0  0  0  0  0  0  0  0  0
    3.8305    1.0427   -0.0074 C   0  0  1  0  0  0  0  0  0  0  0  0
   -1.8856    0.4519    0.3170 C   0  0  0  0  0  0  0  0  0  0  0  0
   -2.7935    1.1676   -0.6839 C   0  0  0  0  0  0  0  0  0  0  0  0
    6.0164    1.1793    0.3055 C   0  0  0  0  0  0  0  0  0  0  0  0
    4.8209   -0.5976    1.6134 C   0  0  0  0  0  0  0  0  0  0  0  0
    5.5677    2.1290   -0.6082 C   0  0  0  0  0  0  0  0  0  0  0  0
   -4.2318    0.7417   -0.5292 C   0  0  0  0  0  0  0  0  0  0  0  0
    5.0032   -1.9526    0.9427 C   0  0  0  0  0  0  0  0  0  0  0  0
    7.3536    1.0498    0.6824 C   0  0  0  0  0  0  0  0  0  0  0  0
    6.4945    3.0102   -1.1908 C   0  0  0  0  0  0  0  0  0  0  0  0
   -5.0746    1.4347    0.3397 C   0  0  0  0  0  0  0  0  0  0  0  0
   -4.7194   -0.3452   -1.2548 C   0  0  0  0  0  0  0  0  0  0  0  0
   -6.8925   -0.0461   -0.2425 C   0  0  0  0  0  0  0  0  0  0  0  0
   -8.3146   -0.4677   -0.0881 C   0  0  0  0  0  0  0  0  0  0  0  0
    8.2621    1.9351    0.0928 C   0  0  0  0  0  0  0  0  0  0  0  0
    7.8423    2.8984   -0.8272 C   0  0  0  0  0  0  0  0  0  0  0  0
   -6.4049    1.0408    0.4832 C   0  0  0  0  0  0  0  0  0  0  0  0
   -6.0497   -0.7392   -1.1114 C   0  0  0  0  0  0  0  0  0  0  0  0
   -9.2697    0.6907   -0.5235 C   0  0  0  0  0  0  0  0  0  0  0  0
   -8.7329   -1.7158   -0.9358 C   0  0  0  0  0  0  0  0  0  0  0  0
   -8.6272   -0.8642    1.3884 C   0  0  0  0  0  0  0  0  0  0  0  0
    6.4981   -3.2684   -0.3050 C   0  0  0  0  0  0  0  0  0  0  0  0
    7.8760   -3.2754   -0.9316 C   0  0  0  0  0  0  0  0  0  0  0  0
    2.4530   -0.5461    0.3774 H   0  0  0  0  0  0  0  0  0  0  0  0
    2.0634    0.0782   -1.9400 H   0  0  0  0  0  0  0  0  0  0  0  0
    1.5736    1.7029   -1.4723 H   0  0  0  0  0  0  0  0  0  0  0  0
    1.6660    2.3016    1.1621 H   0  0  0  0  0  0  0  0  0  0  0  0
    2.1954    1.0420    2.2652 H   0  0  0  0  0  0  0  0  0  0  0  0
    0.1618   -0.9126   -0.7422 H   0  0  0  0  0  0  0  0  0  0  0  0
   -0.3830    0.3288   -1.8714 H   0  0  0  0  0  0  0  0  0  0  0  0
   -0.2563    1.2727    2.2346 H   0  0  0  0  0  0  0  0  0  0  0  0
    0.2362   -0.3500    1.7335 H   0  0  0  0  0  0  0  0  0  0  0  0
   -1.9774   -0.6395    0.2326 H   0  0  0  0  0  0  0  0  0  0  0  0
   -2.2522    0.7050    1.3217 H   0  0  0  0  0  0  0  0  0  0  0  0
   -2.4823    0.9743   -1.7173 H   0  0  0  0  0  0  0  0  0  0  0  0
   -2.7209    2.2554   -0.5512 H   0  0  0  0  0  0  0  0  0  0  0  0
    5.6109   -0.4354    2.3558 H   0  0  0  0  0  0  0  0  0  0  0  0
    3.8721   -0.5554    2.1539 H   0  0  0  0  0  0  0  0  0  0  0  0
    4.2315   -2.1128    0.1811 H   0  0  0  0  0  0  0  0  0  0  0  0
    4.9188   -2.7424    1.6981 H   0  0  0  0  0  0  0  0  0  0  0  0
    7.6859    0.3048    1.3959 H   0  0  0  0  0  0  0  0  0  0  0  0
    6.1783    3.7621   -1.9066 H   0  0  0  0  0  0  0  0  0  0  0  0
   -4.7052    2.2808    0.9129 H   0  0  0  0  0  0  0  0  0  0  0  0
   -4.0711   -0.8937   -1.9332 H   0  0  0  0  0  0  0  0  0  0  0  0
    9.3149    1.8712    0.3564 H   0  0  0  0  0  0  0  0  0  0  0  0
    8.5721    3.5724   -1.2686 H   0  0  0  0  0  0  0  0  0  0  0  0
   -7.0414    1.5908    1.1711 H   0  0  0  0  0  0  0  0  0  0  0  0
   -6.3752   -1.5900   -1.6997 H   0  0  0  0  0  0  0  0  0  0  0  0
  -10.3190    0.3734   -0.5187 H   0  0  0  0  0  0  0  0  0  0  0  0
   -9.1940    1.5528    0.1488 H   0  0  0  0  0  0  0  0  0  0  0  0
   -9.0317    1.0329   -1.5377 H   0  0  0  0  0  0  0  0  0  0  0  0
   -9.7826   -1.9769   -0.7529 H   0  0  0  0  0  0  0  0  0  0  0  0
   -8.6263   -1.5305   -2.0107 H   0  0  0  0  0  0  0  0  0  0  0  0
   -8.1424   -2.5997   -0.6667 H   0  0  0  0  0  0  0  0  0  0  0  0
    6.4232   -4.0774    0.4302 H   0  0  0  0  0  0  0  0  0  0  0  0
    5.7399   -3.4213   -1.0811 H   0  0  0  0  0  0  0  0  0  0  0  0
    8.0726   -4.2264   -1.4345 H   0  0  0  0  0  0  0  0  0  0  0  0
    8.6464   -3.1117   -0.1707 H   0  0  0  0  0  0  0  0  0  0  0  0
    7.9720   -2.4634   -1.6603 H   0  0  0  0  0  0  0  0  0  0  0  0
  -10.0462   -0.9682    2.7201 H   0  0  0  0  0  0  0  0  0  0  0  0
  1 19  1  0  0  0  0
  1 33  1  0  0  0  0
  2 32  1  0  0  0  0
  2 71  1  0  0  0  0
  3 32  2  0  0  0  0
  4 10  1  0  0  0  0
  4 11  1  0  0  0  0
  4 13  1  0  0  0  0
  5 12  1  0  0  0  0
  5 15  2  0  0  0  0
  5 16  1  0  0  0  0
  6 12  1  0  0  0  0
  6 17  2  0  0  0  0
  7  8  1  0  0  0  0
  7  9  1  0  0  0  0
  7 35  1  0  0  0  0
  8 10  1  0  0  0  0
  8 36  1  0  0  0  0
  8 37  1  0  0  0  0
  9 11  1  0  0  0  0
  9 38  1  0  0  0  0
  9 39  1  0  0  0  0
 10 40  1  0  0  0  0
 10 41  1  0  0  0  0
 11 42  1  0  0  0  0
 11 43  1  0  0  0  0
 12  7  1  6  0  0  0
 13 14  1  0  0  0  0
 13 44  1  0  0  0  0
 13 45  1  0  0  0  0
 14 18  1  0  0  0  0
 14 46  1  0  0  0  0
 14 47  1  0  0  0  0
 15 17  1  0  0  0  0
 15 20  1  0  0  0  0
 16 19  1  0  0  0  0
 16 48  1  0  0  0  0
 16 49  1  0  0  0  0
 17 21  1  0  0  0  0
 18 22  2  0  0  0  0
 18 23  1  0  0  0  0
 19 50  1  0  0  0  0
 19 51  1  0  0  0  0
 20 26  2  0  0  0  0
 20 52  1  0  0  0  0
 21 27  2  0  0  0  0
 21 53  1  0  0  0  0
 22 28  1  0  0  0  0
 22 54  1  0  0  0  0
 23 29  2  0  0  0  0
 23 55  1  0  0  0  0
 24 25  1  0  0  0  0
 24 28  2  0  0  0  0
 24 29  1  0  0  0  0
 25 30  1  0  0  0  0
 25 31  1  0  0  0  0
 25 32  1  0  0  0  0
 26 27  1  0  0  0  0
 26 56  1  0  0  0  0
 27 57  1  0  0  0  0
 28 58  1  0  0  0  0
 29 59  1  0  0  0  0
 30 60  1  0  0  0  0
 30 61  1  0  0  0  0
 30 62  1  0  0  0  0
 31 63  1  0  0  0  0
 31 64  1  0  0  0  0
 31 65  1  0  0  0  0
 33 34  1  0  0  0  0
 33 66  1  0  0  0  0
 33 67  1  0  0  0  0
 34 68  1  0  0  0  0
 34 69  1  0  0  0  0
 34 70  1  0  0  0  0
M  END
