DB11827
 OpenBabel07062211533D

 55 58  0  0  1  0  0  0  0  0999 V2000
    2.0017   -4.1508    0.9381 Cl  0  0  0  0  0  0  0  0  0  0  0  0
   -3.3402   -0.4685   -0.5426 O   0  0  0  0  0  0  0  0  0  0  0  0
   -3.4542   -0.3377    1.7759 O   0  0  0  0  0  0  0  0  0  0  0  0
   -5.6578    2.3242   -0.0455 O   0  0  0  0  0  0  0  0  0  0  0  0
   -1.2910    1.5707    1.7052 O   0  0  0  0  0  0  0  0  0  0  0  0
   -2.9106    3.4749    0.1007 O   0  0  0  0  0  0  0  0  0  0  0  0
   -5.4678    0.1050   -2.4379 O   0  0  0  0  0  0  0  0  0  0  0  0
    5.9546    1.3142   -0.6876 O   0  0  0  0  0  0  0  0  0  0  0  0
   -4.6084    0.1137   -0.2096 C   0  0  2  0  0  0  0  0  0  0  0  0
   -2.5600   -0.2172    0.6482 C   0  0  2  0  0  0  0  0  0  0  0  0
   -4.4391    1.6460   -0.3359 C   0  0  2  0  0  0  0  0  0  0  0  0
   -2.1002    1.2555    0.5731 C   0  0  1  0  0  0  0  0  0  0  0  0
   -3.3212    2.1899    0.5682 C   0  0  1  0  0  0  0  0  0  0  0  0
   -4.7744   -0.3922    1.2157 C   0  0  0  0  0  0  0  0  0  0  0  0
   -5.6882   -0.4197   -1.1405 C   0  0  0  0  0  0  0  0  0  0  0  0
   -1.4110   -1.2027    0.7120 C   0  0  0  0  0  0  0  0  0  0  0  0
   -0.4785   -1.2554   -0.3242 C   0  0  0  0  0  0  0  0  0  0  0  0
   -1.2857   -2.0576    1.8070 C   0  0  0  0  0  0  0  0  0  0  0  0
    0.5793   -2.1625   -0.2651 C   0  0  0  0  0  0  0  0  0  0  0  0
   -0.2279   -2.9649    1.8662 C   0  0  0  0  0  0  0  0  0  0  0  0
    0.7047   -3.0173    0.8301 C   0  0  0  0  0  0  0  0  0  0  0  0
    1.5576   -2.1866   -1.3947 C   0  0  0  0  0  0  0  0  0  0  0  0
    2.7328   -1.2506   -1.2062 C   0  0  0  0  0  0  0  0  0  0  0  0
    2.5838    0.1147   -1.4501 C   0  0  0  0  0  0  0  0  0  0  0  0
    3.9647   -1.7539   -0.7881 C   0  0  0  0  0  0  0  0  0  0  0  0
    3.6666    0.9767   -1.2762 C   0  0  0  0  0  0  0  0  0  0  0  0
    5.0475   -0.8921   -0.6141 C   0  0  0  0  0  0  0  0  0  0  0  0
    4.8985    0.4731   -0.8582 C   0  0  0  0  0  0  0  0  0  0  0  0
    6.9187    0.9537    0.3008 C   0  0  0  0  0  0  0  0  0  0  0  0
    7.5455    2.2129    0.8607 C   0  0  0  0  0  0  0  0  0  0  0  0
   -4.1806    1.9035   -1.3705 H   0  0  0  0  0  0  0  0  0  0  0  0
   -1.4937    1.4316   -0.3238 H   0  0  0  0  0  0  0  0  0  0  0  0
   -3.6903    2.3502    1.5882 H   0  0  0  0  0  0  0  0  0  0  0  0
   -5.0858   -1.4425    1.2421 H   0  0  0  0  0  0  0  0  0  0  0  0
   -5.4676    0.1930    1.8254 H   0  0  0  0  0  0  0  0  0  0  0  0
   -6.6869   -0.1203   -0.8069 H   0  0  0  0  0  0  0  0  0  0  0  0
   -5.6440   -1.5117   -1.2101 H   0  0  0  0  0  0  0  0  0  0  0  0
   -5.8804    2.1631    0.8864 H   0  0  0  0  0  0  0  0  0  0  0  0
   -1.0429    2.5081    1.6328 H   0  0  0  0  0  0  0  0  0  0  0  0
   -2.5709    3.3734   -0.8047 H   0  0  0  0  0  0  0  0  0  0  0  0
   -0.5831   -0.5968   -1.1828 H   0  0  0  0  0  0  0  0  0  0  0  0
   -1.9925   -2.0423    2.6313 H   0  0  0  0  0  0  0  0  0  0  0  0
   -6.1676   -0.2484   -3.0130 H   0  0  0  0  0  0  0  0  0  0  0  0
   -0.1435   -3.6240    2.7266 H   0  0  0  0  0  0  0  0  0  0  0  0
    1.9087   -3.2048   -1.6041 H   0  0  0  0  0  0  0  0  0  0  0  0
    1.0467   -1.9093   -2.3286 H   0  0  0  0  0  0  0  0  0  0  0  0
    1.6327    0.5218   -1.7819 H   0  0  0  0  0  0  0  0  0  0  0  0
    4.1077   -2.8163   -0.6165 H   0  0  0  0  0  0  0  0  0  0  0  0
    3.5447    2.0391   -1.4686 H   0  0  0  0  0  0  0  0  0  0  0  0
    5.9967   -1.3287   -0.3182 H   0  0  0  0  0  0  0  0  0  0  0  0
    7.6911    0.3290   -0.1610 H   0  0  0  0  0  0  0  0  0  0  0  0
    6.4613    0.4135    1.1392 H   0  0  0  0  0  0  0  0  0  0  0  0
    8.2993    1.9728    1.6159 H   0  0  0  0  0  0  0  0  0  0  0  0
    6.7828    2.8548    1.3139 H   0  0  0  0  0  0  0  0  0  0  0  0
    8.0184    2.7955    0.0632 H   0  0  0  0  0  0  0  0  0  0  0  0
  1 21  1  0  0  0  0
  2  9  1  0  0  0  0
  2 10  1  0  0  0  0
  3 10  1  0  0  0  0
  3 14  1  0  0  0  0
  4 11  1  0  0  0  0
  4 38  1  0  0  0  0
  5 12  1  0  0  0  0
  5 39  1  0  0  0  0
  6 13  1  0  0  0  0
  6 40  1  0  0  0  0
  7 15  1  0  0  0  0
  7 43  1  0  0  0  0
  8 28  1  0  0  0  0
  8 29  1  0  0  0  0
  9 11  1  6  0  0  0
  9 14  1  0  0  0  0
  9 15  1  0  0  0  0
 10 12  1  6  0  0  0
 10 16  1  0  0  0  0
 11 13  1  1  0  0  0
 11 31  1  0  0  0  0
 12 13  1  6  0  0  0
 12 32  1  0  0  0  0
 13 33  1  1  0  0  0
 14 34  1  0  0  0  0
 14 35  1  0  0  0  0
 15 36  1  0  0  0  0
 15 37  1  0  0  0  0
 16 17  2  0  0  0  0
 16 18  1  0  0  0  0
 17 19  1  0  0  0  0
 17 41  1  0  0  0  0
 18 20  2  0  0  0  0
 18 42  1  0  0  0  0
 19 21  2  0  0  0  0
 19 22  1  0  0  0  0
 20 21  1  0  0  0  0
 20 44  1  0  0  0  0
 22 23  1  0  0  0  0
 22 45  1  0  0  0  0
 22 46  1  0  0  0  0
 23 24  2  0  0  0  0
 23 25  1  0  0  0  0
 24 26  1  0  0  0  0
 24 47  1  0  0  0  0
 25 27  2  0  0  0  0
 25 48  1  0  0  0  0
 26 28  2  0  0  0  0
 26 49  1  0  0  0  0
 27 28  1  0  0  0  0
 27 50  1  0  0  0  0
 29 30  1  0  0  0  0
 29 51  1  0  0  0  0
 29 52  1  0  0  0  0
 30 53  1  0  0  0  0
 30 54  1  0  0  0  0
 30 55  1  0  0  0  0
M  END
