DB11748
 OpenBabel07062211533D

 54 55  0  0  0  0  0  0  0  0999 V2000
    0.4406    0.5844   -0.7901 S   0  0  0  0  0  0  0  0  0  0  0  0
    5.0742    0.9743   -0.2102 P   0  0  0  0  0  0  0  0  0  0  0  0
    3.5888    1.0032    0.4281 O   0  0  0  0  0  0  0  0  0  0  0  0
    0.4931   -2.3441   -3.5072 O   0  0  0  0  0  0  0  0  0  0  0  0
   -1.3332    0.8415    1.1463 O   0  0  0  0  0  0  0  0  0  0  0  0
    6.0259    1.0686    1.0940 O   0  0  0  0  0  0  0  0  0  0  0  0
    5.2557   -0.5583   -0.6930 O   0  0  0  0  0  0  0  0  0  0  0  0
    5.3347    2.0133   -1.2613 O   0  0  0  0  0  0  0  0  0  0  0  0
    0.3944   -2.3850   -1.1644 N   0  0  0  0  0  0  0  0  0  0  0  0
   -3.8962   -1.1390   -0.4661 N   0  0  0  0  0  0  0  0  0  0  0  0
   -3.0950   -1.9888    1.6419 N   0  0  0  0  0  0  0  0  0  0  0  0
   -2.7531   -1.6615   -2.4772 N   0  0  0  0  0  0  0  0  0  0  0  0
    0.9771   -1.9539    0.0025 C   0  0  0  0  0  0  0  0  0  0  0  0
   -0.7881   -3.2285   -1.0705 C   0  0  0  0  0  0  0  0  0  0  0  0
    1.0995   -0.6369    0.2945 C   0  0  0  0  0  0  0  0  0  0  0  0
    1.7531   -0.1152    1.5639 C   0  0  0  0  0  0  0  0  0  0  0  0
   -1.9287   -2.5239   -0.3946 C   0  0  0  0  0  0  0  0  0  0  0  0
    3.2662    0.0491    1.4308 C   0  0  0  0  0  0  0  0  0  0  0  0
    1.4611   -3.0798    0.8760 C   0  0  0  0  0  0  0  0  0  0  0  0
   -2.8696   -1.7735   -1.0696 C   0  0  0  0  0  0  0  0  0  0  0  0
    0.9161   -2.0278   -2.4002 C   0  0  0  0  0  0  0  0  0  0  0  0
   -2.0931   -2.5970    0.9736 C   0  0  0  0  0  0  0  0  0  0  0  0
   -0.7037    1.4031    0.2579 C   0  0  0  0  0  0  0  0  0  0  0  0
   -3.9478   -1.2868    0.8714 C   0  0  0  0  0  0  0  0  0  0  0  0
   -0.9405    2.8410   -0.0284 C   0  0  0  0  0  0  0  0  0  0  0  0
   -5.0691   -0.5999    1.5745 C   0  0  0  0  0  0  0  0  0  0  0  0
   -2.1985    3.3994    0.1985 C   0  0  0  0  0  0  0  0  0  0  0  0
    0.0951    3.6334   -0.5240 C   0  0  0  0  0  0  0  0  0  0  0  0
   -2.4210    4.7499   -0.0702 C   0  0  0  0  0  0  0  0  0  0  0  0
   -0.1274    4.9840   -0.7924 C   0  0  0  0  0  0  0  0  0  0  0  0
   -1.3855    5.5422   -0.5656 C   0  0  0  0  0  0  0  0  0  0  0  0
   -1.0855   -3.5813   -2.0650 H   0  0  0  0  0  0  0  0  0  0  0  0
   -0.5325   -4.1462   -0.5251 H   0  0  0  0  0  0  0  0  0  0  0  0
    1.3270    0.8532    1.8510 H   0  0  0  0  0  0  0  0  0  0  0  0
    1.5321   -0.7842    2.4043 H   0  0  0  0  0  0  0  0  0  0  0  0
    3.7333   -0.9146    1.2061 H   0  0  0  0  0  0  0  0  0  0  0  0
    3.6763    0.4049    2.3820 H   0  0  0  0  0  0  0  0  0  0  0  0
    2.2351   -2.7595    1.5790 H   0  0  0  0  0  0  0  0  0  0  0  0
    1.9205   -3.8680    0.2674 H   0  0  0  0  0  0  0  0  0  0  0  0
    0.6582   -3.5283    1.4620 H   0  0  0  0  0  0  0  0  0  0  0  0
    1.8447   -1.4374   -2.3161 H   0  0  0  0  0  0  0  0  0  0  0  0
   -1.4365   -3.1801    1.6066 H   0  0  0  0  0  0  0  0  0  0  0  0
   -3.4691   -1.1155   -2.9416 H   0  0  0  0  0  0  0  0  0  0  0  0
   -1.8268   -1.6454   -2.8847 H   0  0  0  0  0  0  0  0  0  0  0  0
   -4.8283    0.4592    1.7058 H   0  0  0  0  0  0  0  0  0  0  0  0
   -5.9933   -0.6815    0.9938 H   0  0  0  0  0  0  0  0  0  0  0  0
   -5.2466   -1.0424    2.5596 H   0  0  0  0  0  0  0  0  0  0  0  0
   -3.0178    2.7958    0.5802 H   0  0  0  0  0  0  0  0  0  0  0  0
    1.0982    3.2504   -0.6860 H   0  0  0  0  0  0  0  0  0  0  0  0
   -3.4006    5.1845    0.1057 H   0  0  0  0  0  0  0  0  0  0  0  0
    0.6804    5.6033   -1.1714 H   0  0  0  0  0  0  0  0  0  0  0  0
   -1.5582    6.5942   -0.7733 H   0  0  0  0  0  0  0  0  0  0  0  0
    6.9944    1.1612    0.9690 H   0  0  0  0  0  0  0  0  0  0  0  0
    6.0703   -0.8098   -1.1781 H   0  0  0  0  0  0  0  0  0  0  0  0
  1 15  1  0  0  0  0
  1 23  1  0  0  0  0
  2  3  1  0  0  0  0
  2  6  1  0  0  0  0
  2  7  1  0  0  0  0
  2  8  2  0  0  0  0
  3 18  1  0  0  0  0
  4 21  2  0  0  0  0
  5 23  2  0  0  0  0
  6 53  1  0  0  0  0
  7 54  1  0  0  0  0
  9 13  1  0  0  0  0
  9 14  1  0  0  0  0
  9 21  1  0  0  0  0
 10 20  2  0  0  0  0
 10 24  1  0  0  0  0
 11 22  1  0  0  0  0
 11 24  2  0  0  0  0
 12 20  1  0  0  0  0
 12 43  1  0  0  0  0
 12 44  1  0  0  0  0
 13 15  2  0  0  0  0
 13 19  1  0  0  0  0
 14 17  1  0  0  0  0
 14 32  1  0  0  0  0
 14 33  1  0  0  0  0
 15 16  1  0  0  0  0
 16 18  1  0  0  0  0
 16 34  1  0  0  0  0
 16 35  1  0  0  0  0
 17 20  1  0  0  0  0
 17 22  2  0  0  0  0
 18 36  1  0  0  0  0
 18 37  1  0  0  0  0
 19 38  1  0  0  0  0
 19 39  1  0  0  0  0
 19 40  1  0  0  0  0
 21 41  1  0  0  0  0
 22 42  1  0  0  0  0
 23 25  1  0  0  0  0
 24 26  1  0  0  0  0
 25 27  2  0  0  0  0
 25 28  1  0  0  0  0
 26 45  1  0  0  0  0
 26 46  1  0  0  0  0
 26 47  1  0  0  0  0
 27 29  1  0  0  0  0
 27 48  1  0  0  0  0
 28 30  2  0  0  0  0
 28 49  1  0  0  0  0
 29 31  2  0  0  0  0
 29 50  1  0  0  0  0
 30 31  1  0  0  0  0
 30 51  1  0  0  0  0
 31 52  1  0  0  0  0
M  END
