DB11157
 OpenBabel07062211533D

 27 29  0  0  0  0  0  0  0  0999 V2000
    0.0276    2.4726    0.0011 O   0  0  0  0  0  0  0  0  0  0  0  0
    2.5829    2.4729   -0.0001 O   0  0  0  0  0  0  0  0  0  0  0  0
   -2.5199    2.6693    0.0001 O   0  0  0  0  0  0  0  0  0  0  0  0
   -0.1328   -1.6944    0.0019 C   0  0  0  0  0  0  0  0  0  0  0  0
    1.1697   -0.9425    0.0007 C   0  0  0  0  0  0  0  0  0  0  0  0
   -1.3737   -0.8445    0.0001 C   0  0  0  0  0  0  0  0  0  0  0  0
    1.2282    0.4551    0.0005 C   0  0  0  0  0  0  0  0  0  0  0  0
   -1.3244    0.5534    0.0005 C   0  0  0  0  0  0  0  0  0  0  0  0
   -0.0195    1.2490    0.0010 C   0  0  0  0  0  0  0  0  0  0  0  0
    2.3704   -1.6698    0.0002 C   0  0  0  0  0  0  0  0  0  0  0  0
   -2.6267   -1.4773   -0.0009 C   0  0  0  0  0  0  0  0  0  0  0  0
    2.4646    1.1143   -0.0002 C   0  0  0  0  0  0  0  0  0  0  0  0
   -2.5066    1.3056    0.0003 C   0  0  0  0  0  0  0  0  0  0  0  0
    3.6017   -1.0141   -0.0010 C   0  0  0  0  0  0  0  0  0  0  0  0
   -3.8040   -0.7290   -0.0016 C   0  0  0  0  0  0  0  0  0  0  0  0
    3.6480    0.3771   -0.0014 C   0  0  0  0  0  0  0  0  0  0  0  0
   -3.7432    0.6616   -0.0008 C   0  0  0  0  0  0  0  0  0  0  0  0
   -0.1573   -2.3369   -0.8877 H   0  0  0  0  0  0  0  0  0  0  0  0
   -0.1576   -2.3336    0.8937 H   0  0  0  0  0  0  0  0  0  0  0  0
    2.3503   -2.7571    0.0005 H   0  0  0  0  0  0  0  0  0  0  0  0
   -2.6902   -2.5630   -0.0011 H   0  0  0  0  0  0  0  0  0  0  0  0
    4.5229   -1.5893   -0.0015 H   0  0  0  0  0  0  0  0  0  0  0  0
   -4.7667   -1.2316   -0.0024 H   0  0  0  0  0  0  0  0  0  0  0  0
    4.6159    0.8716   -0.0021 H   0  0  0  0  0  0  0  0  0  0  0  0
   -4.6647    1.2380   -0.0013 H   0  0  0  0  0  0  0  0  0  0  0  0
    3.5235    2.7194   -0.0006 H   0  0  0  0  0  0  0  0  0  0  0  0
   -1.6183    3.0231    0.0022 H   0  0  0  0  0  0  0  0  0  0  0  0
  1  9  2  0  0  0  0
  2 12  1  0  0  0  0
  2 26  1  0  0  0  0
  3 13  1  0  0  0  0
  3 27  1  0  0  0  0
  4  5  1  0  0  0  0
  4  6  1  0  0  0  0
  4 18  1  0  0  0  0
  4 19  1  0  0  0  0
  5  7  2  0  0  0  0
  5 10  1  0  0  0  0
  6  8  2  0  0  0  0
  6 11  1  0  0  0  0
  7  9  1  0  0  0  0
  7 12  1  0  0  0  0
  8  9  1  0  0  0  0
  8 13  1  0  0  0  0
 10 14  2  0  0  0  0
 10 20  1  0  0  0  0
 11 15  2  0  0  0  0
 11 21  1  0  0  0  0
 12 16  2  0  0  0  0
 13 17  2  0  0  0  0
 14 16  1  0  0  0  0
 14 22  1  0  0  0  0
 15 17  1  0  0  0  0
 15 23  1  0  0  0  0
 16 24  1  0  0  0  0
 17 25  1  0  0  0  0
M  END
