DB11221
 OpenBabel07062211533D

 30 31  0  0  0  0  0  0  0  0999 V2000
   -4.2883   -0.4523    0.0341 O   0  0  0  0  0  0  0  0  0  0  0  0
   -1.2973    3.2529   -0.1224 O   0  0  0  0  0  0  0  0  0  0  0  0
    1.1838    2.7378   -0.1963 O   0  0  0  0  0  0  0  0  0  0  0  0
    2.2182    0.5984    2.2199 O   0  0  0  0  0  0  0  0  0  0  0  0
   -0.4303    1.0166   -0.1028 C   0  0  0  0  0  0  0  0  0  0  0  0
    2.0851    0.5993   -0.1753 C   0  0  0  0  0  0  0  0  0  0  0  0
    0.9569    1.5199   -0.1557 C   0  0  0  0  0  0  0  0  0  0  0  0
   -1.4927    1.9045   -0.0892 C   0  0  0  0  0  0  0  0  0  0  0  0
   -0.6327   -0.3533   -0.0724 C   0  0  0  0  0  0  0  0  0  0  0  0
   -3.0170    0.0315   -0.0122 C   0  0  0  0  0  0  0  0  0  0  0  0
   -2.7957    1.4084   -0.0435 C   0  0  0  0  0  0  0  0  0  0  0  0
    2.6787    0.1687    1.0113 C   0  0  0  0  0  0  0  0  0  0  0  0
   -1.9354   -0.8492   -0.0266 C   0  0  0  0  0  0  0  0  0  0  0  0
    2.5724    0.1487   -1.4023 C   0  0  0  0  0  0  0  0  0  0  0  0
    3.7593   -0.7126    0.9709 C   0  0  0  0  0  0  0  0  0  0  0  0
    3.6531   -0.7323   -1.4426 C   0  0  0  0  0  0  0  0  0  0  0  0
    4.2466   -1.1628   -0.2562 C   0  0  0  0  0  0  0  0  0  0  0  0
   -4.4427   -1.8703    0.0661 C   0  0  0  0  0  0  0  0  0  0  0  0
    0.1747   -1.0779   -0.0821 H   0  0  0  0  0  0  0  0  0  0  0  0
   -3.6442    2.0880   -0.0322 H   0  0  0  0  0  0  0  0  0  0  0  0
   -2.0364   -1.9290   -0.0040 H   0  0  0  0  0  0  0  0  0  0  0  0
    2.1191    0.4775   -2.3340 H   0  0  0  0  0  0  0  0  0  0  0  0
    4.2315   -1.0563    1.8872 H   0  0  0  0  0  0  0  0  0  0  0  0
    4.0326   -1.0829   -2.3979 H   0  0  0  0  0  0  0  0  0  0  0  0
    5.0881   -1.8488   -0.2878 H   0  0  0  0  0  0  0  0  0  0  0  0
   -2.1608    3.7000   -0.1065 H   0  0  0  0  0  0  0  0  0  0  0  0
    2.7513    0.1935    2.9253 H   0  0  0  0  0  0  0  0  0  0  0  0
   -5.5172   -2.0777    0.1016 H   0  0  0  0  0  0  0  0  0  0  0  0
   -4.0036   -2.3026    0.9717 H   0  0  0  0  0  0  0  0  0  0  0  0
   -4.0570   -2.3377   -0.8462 H   0  0  0  0  0  0  0  0  0  0  0  0
  1 10  1  0  0  0  0
  1 18  1  0  0  0  0
  2  8  1  0  0  0  0
  2 26  1  0  0  0  0
  3  7  2  0  0  0  0
  4 12  1  0  0  0  0
  4 27  1  0  0  0  0
  5  7  1  0  0  0  0
  5  8  2  0  0  0  0
  5  9  1  0  0  0  0
  6  7  1  0  0  0  0
  6 12  2  0  0  0  0
  6 14  1  0  0  0  0
  8 11  1  0  0  0  0
  9 13  2  0  0  0  0
  9 19  1  0  0  0  0
 10 11  2  0  0  0  0
 10 13  1  0  0  0  0
 11 20  1  0  0  0  0
 12 15  1  0  0  0  0
 13 21  1  0  0  0  0
 14 16  2  0  0  0  0
 14 22  1  0  0  0  0
 15 17  2  0  0  0  0
 15 23  1  0  0  0  0
 16 17  1  0  0  0  0
 16 24  1  0  0  0  0
 17 25  1  0  0  0  0
 18 28  1  0  0  0  0
 18 29  1  0  0  0  0
 18 30  1  0  0  0  0
M  END
