DB11994
 OpenBabel07062211533D

 39 41  0  0  0  0  0  0  0  0999 V2000
    1.5094   -2.0067    0.7163 O   0  0  0  0  0  0  0  0  0  0  0  0
   -3.3217   -0.3096    0.6936 O   0  0  0  0  0  0  0  0  0  0  0  0
   -0.8783   -1.0789    0.6852 O   0  0  0  0  0  0  0  0  0  0  0  0
    0.8633    3.8665   -0.3487 O   0  0  0  0  0  0  0  0  0  0  0  0
    5.8779   -0.0560    0.0884 O   0  0  0  0  0  0  0  0  0  0  0  0
    5.6425    2.1682   -0.3166 O   0  0  0  0  0  0  0  0  0  0  0  0
    1.3814   -2.3981   -1.5881 O   0  0  0  0  0  0  0  0  0  0  0  0
   -3.4510   -0.7018   -1.6108 O   0  0  0  0  0  0  0  0  0  0  0  0
    0.9662    0.3257    0.3105 C   0  0  0  0  0  0  0  0  0  0  0  0
    1.4214    1.6179    0.0403 C   0  0  0  0  0  0  0  0  0  0  0  0
   -1.4360    1.1695    0.2988 C   0  0  0  0  0  0  0  0  0  0  0  0
   -0.9808    2.4616    0.0283 C   0  0  0  0  0  0  0  0  0  0  0  0
   -0.4791    0.0542    0.4497 C   0  0  0  0  0  0  0  0  0  0  0  0
    0.4645    2.7330   -0.1116 C   0  0  0  0  0  0  0  0  0  0  0  0
    1.8837   -0.7223    0.4520 C   0  0  0  0  0  0  0  0  0  0  0  0
    2.7938    1.8623   -0.0884 C   0  0  0  0  0  0  0  0  0  0  0  0
   -2.8083    0.9257    0.4292 C   0  0  0  0  0  0  0  0  0  0  0  0
    3.7047    0.8149    0.0538 C   0  0  0  0  0  0  0  0  0  0  0  0
   -1.8981    3.5100   -0.1117 C   0  0  0  0  0  0  0  0  0  0  0  0
    3.2507   -0.4746    0.3234 C   0  0  0  0  0  0  0  0  0  0  0  0
   -3.7191    1.9733    0.2891 C   0  0  0  0  0  0  0  0  0  0  0  0
   -3.2649    3.2628    0.0194 C   0  0  0  0  0  0  0  0  0  0  0  0
    5.1306    1.0694   -0.0795 C   0  0  0  0  0  0  0  0  0  0  0  0
    1.2769   -2.7816   -0.4306 C   0  0  0  0  0  0  0  0  0  0  0  0
   -3.6156   -1.0637   -0.4533 C   0  0  0  0  0  0  0  0  0  0  0  0
    0.8725   -4.1710   -0.0357 C   0  0  0  0  0  0  0  0  0  0  0  0
   -4.1723   -2.3994   -0.0582 C   0  0  0  0  0  0  0  0  0  0  0  0
    3.1533    2.8666   -0.2988 H   0  0  0  0  0  0  0  0  0  0  0  0
   -1.5694    4.5241   -0.3221 H   0  0  0  0  0  0  0  0  0  0  0  0
    3.9349   -1.3112    0.4410 H   0  0  0  0  0  0  0  0  0  0  0  0
   -4.7863    1.7933    0.3901 H   0  0  0  0  0  0  0  0  0  0  0  0
   -3.9759    4.0768   -0.0889 H   0  0  0  0  0  0  0  0  0  0  0  0
    0.7072   -4.7703   -0.9356 H   0  0  0  0  0  0  0  0  0  0  0  0
   -0.0575   -4.1356    0.5369 H   0  0  0  0  0  0  0  0  0  0  0  0
    1.6693   -4.6347    0.5509 H   0  0  0  0  0  0  0  0  0  0  0  0
    6.8374    0.1262   -0.0028 H   0  0  0  0  0  0  0  0  0  0  0  0
   -3.4329   -2.9473    0.5312 H   0  0  0  0  0  0  0  0  0  0  0  0
   -4.4001   -2.9779   -0.9581 H   0  0  0  0  0  0  0  0  0  0  0  0
   -5.0943   -2.2611    0.5114 H   0  0  0  0  0  0  0  0  0  0  0  0
  1 15  1  0  0  0  0
  1 24  1  0  0  0  0
  2 17  1  0  0  0  0
  2 25  1  0  0  0  0
  3 13  2  0  0  0  0
  4 14  2  0  0  0  0
  5 23  1  0  0  0  0
  5 36  1  0  0  0  0
  6 23  2  0  0  0  0
  7 24  2  0  0  0  0
  8 25  2  0  0  0  0
  9 10  2  0  0  0  0
  9 13  1  0  0  0  0
  9 15  1  0  0  0  0
 10 14  1  0  0  0  0
 10 16  1  0  0  0  0
 11 12  2  0  0  0  0
 11 13  1  0  0  0  0
 11 17  1  0  0  0  0
 12 14  1  0  0  0  0
 12 19  1  0  0  0  0
 15 20  2  0  0  0  0
 16 18  2  0  0  0  0
 16 28  1  0  0  0  0
 17 21  2  0  0  0  0
 18 20  1  0  0  0  0
 18 23  1  0  0  0  0
 19 22  2  0  0  0  0
 19 29  1  0  0  0  0
 20 30  1  0  0  0  0
 21 22  1  0  0  0  0
 21 31  1  0  0  0  0
 22 32  1  0  0  0  0
 24 26  1  0  0  0  0
 25 27  1  0  0  0  0
 26 33  1  0  0  0  0
 26 34  1  0  0  0  0
 26 35  1  0  0  0  0
 27 37  1  0  0  0  0
 27 38  1  0  0  0  0
 27 39  1  0  0  0  0
M  END
