DB11328
 OpenBabel07062211533D

 49 48  0  0  1  0  0  0  0  0999 V2000
   -2.9665    2.5494    1.1450 S   0  0  0  0  0  0  0  0  0  0  0  0
   -2.6438    1.2629    0.1967 O   0  0  0  0  0  0  0  0  0  0  0  0
   -3.6705    3.6114    0.1263 O   0  0  0  0  0  0  0  0  0  0  0  0
   -3.9708    2.1350    2.1069 O   0  0  0  0  0  0  0  0  0  0  0  0
   -1.7167    3.1295    1.6003 O   0  0  0  0  0  0  0  0  0  0  0  0
    1.6713    1.0213    0.1005 C   0  0  1  0  0  0  0  0  0  0  0  0
    0.1470    0.8652   -0.1112 C   0  0  0  0  0  0  0  0  0  0  0  0
   -0.6334    0.2114    1.0398 C   0  0  0  0  0  0  0  0  0  0  0  0
   -2.1396    0.0621    0.7863 C   0  0  2  0  0  0  0  0  0  0  0  0
    2.4270   -0.3268    0.0739 C   0  0  0  0  0  0  0  0  0  0  0  0
    2.2095    2.0576   -0.9123 C   0  0  0  0  0  0  0  0  0  0  0  0
   -2.4830   -1.1000   -0.1598 C   0  0  0  0  0  0  0  0  0  0  0  0
    3.9075   -0.2483    0.4617 C   0  0  0  0  0  0  0  0  0  0  0  0
   -3.9701   -1.2581   -0.5254 C   0  0  0  0  0  0  0  0  0  0  0  0
    2.1365    1.6028   -2.3629 C   0  0  0  0  0  0  0  0  0  0  0  0
    4.5918   -1.6184    0.4954 C   0  0  0  0  0  0  0  0  0  0  0  0
   -4.8499   -1.4967    0.7018 C   0  0  0  0  0  0  0  0  0  0  0  0
   -4.1381   -2.4171   -1.5125 C   0  0  0  0  0  0  0  0  0  0  0  0
    6.0796   -1.5473    0.8054 C   0  0  0  0  0  0  0  0  0  0  0  0
    1.8140    1.4586    1.0983 H   0  0  0  0  0  0  0  0  0  0  0  0
   -0.2775    1.8572   -0.3023 H   0  0  0  0  0  0  0  0  0  0  0  0
   -0.0216    0.2784   -1.0216 H   0  0  0  0  0  0  0  0  0  0  0  0
   -0.4855    0.8287    1.9341 H   0  0  0  0  0  0  0  0  0  0  0  0
   -0.2145   -0.7717    1.2803 H   0  0  0  0  0  0  0  0  0  0  0  0
   -2.6342   -0.1176    1.7479 H   0  0  0  0  0  0  0  0  0  0  0  0
    1.9427   -1.0131    0.7787 H   0  0  0  0  0  0  0  0  0  0  0  0
    2.3282   -0.7970   -0.9113 H   0  0  0  0  0  0  0  0  0  0  0  0
    1.6523    2.9969   -0.8067 H   0  0  0  0  0  0  0  0  0  0  0  0
    3.2503    2.3016   -0.6702 H   0  0  0  0  0  0  0  0  0  0  0  0
   -2.1134   -2.0349    0.2813 H   0  0  0  0  0  0  0  0  0  0  0  0
   -1.9332   -0.9607   -1.0994 H   0  0  0  0  0  0  0  0  0  0  0  0
    4.0018    0.2264    1.4459 H   0  0  0  0  0  0  0  0  0  0  0  0
    4.4398    0.3888   -0.2533 H   0  0  0  0  0  0  0  0  0  0  0  0
   -4.3161   -0.3438   -1.0229 H   0  0  0  0  0  0  0  0  0  0  0  0
    1.1102    1.3902   -2.6747 H   0  0  0  0  0  0  0  0  0  0  0  0
    2.7488    0.7148   -2.5419 H   0  0  0  0  0  0  0  0  0  0  0  0
    2.5175    2.3957   -3.0155 H   0  0  0  0  0  0  0  0  0  0  0  0
    4.4588   -2.1141   -0.4737 H   0  0  0  0  0  0  0  0  0  0  0  0
    4.1020   -2.2505    1.2455 H   0  0  0  0  0  0  0  0  0  0  0  0
   -4.5076   -2.3662    1.2729 H   0  0  0  0  0  0  0  0  0  0  0  0
   -4.8480   -0.6287    1.3676 H   0  0  0  0  0  0  0  0  0  0  0  0
   -5.8894   -1.6748    0.4059 H   0  0  0  0  0  0  0  0  0  0  0  0
   -3.8178   -3.3666   -1.0703 H   0  0  0  0  0  0  0  0  0  0  0  0
   -5.1853   -2.5209   -1.8158 H   0  0  0  0  0  0  0  0  0  0  0  0
   -3.5455   -2.2467   -2.4177 H   0  0  0  0  0  0  0  0  0  0  0  0
    6.6077   -0.9567    0.0501 H   0  0  0  0  0  0  0  0  0  0  0  0
    6.2520   -1.0875    1.7836 H   0  0  0  0  0  0  0  0  0  0  0  0
    6.5140   -2.5517    0.8185 H   0  0  0  0  0  0  0  0  0  0  0  0
   -3.9381    4.4698    0.5310 H   0  0  0  0  0  0  0  0  0  0  0  0
  1  2  1  0  0  0  0
  1  3  1  0  0  0  0
  1  4  2  0  0  0  0
  1  5  2  0  0  0  0
  2  9  1  0  0  0  0
  3 49  1  0  0  0  0
  6  7  1  0  0  0  0
  6 10  1  0  0  0  0
  6 11  1  0  0  0  0
  6 20  1  1  0  0  0
  7  8  1  0  0  0  0
  7 21  1  0  0  0  0
  7 22  1  0  0  0  0
  8  9  1  0  0  0  0
  8 23  1  0  0  0  0
  8 24  1  0  0  0  0
  9 12  1  0  0  0  0
  9 25  1  1  0  0  0
 10 13  1  0  0  0  0
 10 26  1  0  0  0  0
 10 27  1  0  0  0  0
 11 15  1  0  0  0  0
 11 28  1  0  0  0  0
 11 29  1  0  0  0  0
 12 14  1  0  0  0  0
 12 30  1  0  0  0  0
 12 31  1  0  0  0  0
 13 16  1  0  0  0  0
 13 32  1  0  0  0  0
 13 33  1  0  0  0  0
 14 17  1  0  0  0  0
 14 18  1  0  0  0  0
 14 34  1  0  0  0  0
 15 35  1  0  0  0  0
 15 36  1  0  0  0  0
 15 37  1  0  0  0  0
 16 19  1  0  0  0  0
 16 38  1  0  0  0  0
 16 39  1  0  0  0  0
 17 40  1  0  0  0  0
 17 41  1  0  0  0  0
 17 42  1  0  0  0  0
 18 43  1  0  0  0  0
 18 44  1  0  0  0  0
 18 45  1  0  0  0  0
 19 46  1  0  0  0  0
 19 47  1  0  0  0  0
 19 48  1  0  0  0  0
M  END
