DB11800
 OpenBabel07062211533D

 51 54  0  0  0  0  0  0  0  0999 V2000
   -1.1931    1.0071   -2.1521 Cl  0  0  0  0  0  0  0  0  0  0  0  0
    1.7589   -0.9940    1.4559 O   0  0  0  0  0  0  0  0  0  0  0  0
    5.7325    2.1309    0.9580 O   0  0  0  0  0  0  0  0  0  0  0  0
    7.3921    0.8994   -0.9000 O   0  0  0  0  0  0  0  0  0  0  0  0
   -8.8827   -0.1929    1.0229 O   0  0  0  0  0  0  0  0  0  0  0  0
   -4.6872   -0.6786    1.5280 O   0  0  0  0  0  0  0  0  0  0  0  0
    4.3310   -2.7170   -1.3030 N   0  0  0  0  0  0  0  0  0  0  0  0
   -3.3975    0.1548   -0.2407 N   0  0  0  0  0  0  0  0  0  0  0  0
   -5.6967    0.3240   -0.3281 N   0  0  0  0  0  0  0  0  0  0  0  0
   -7.5004   -0.3088    1.1044 N   0  0  0  0  0  0  0  0  0  0  0  0
    3.8199   -0.9048    0.2010 C   0  0  0  0  0  0  0  0  0  0  0  0
    4.6564   -1.5366   -0.7427 C   0  0  0  0  0  0  0  0  0  0  0  0
    2.6212   -1.5413    0.5507 C   0  0  0  0  0  0  0  0  0  0  0  0
    4.1908    0.3272    0.7659 C   0  0  0  0  0  0  0  0  0  0  0  0
    5.3873    0.9375    0.4007 C   0  0  0  0  0  0  0  0  0  0  0  0
    5.8470   -0.9040   -1.0897 C   0  0  0  0  0  0  0  0  0  0  0  0
    6.2161    0.3209   -0.5283 C   0  0  0  0  0  0  0  0  0  0  0  0
    2.2832   -2.7576   -0.0250 C   0  0  0  0  0  0  0  0  0  0  0  0
    0.4770   -0.7047    1.0246 C   0  0  0  0  0  0  0  0  0  0  0  0
    3.1651   -3.2982   -0.9385 C   0  0  0  0  0  0  0  0  0  0  0  0
   -2.0887   -0.1233    0.1648 C   0  0  0  0  0  0  0  0  0  0  0  0
    0.2999   -0.0729   -0.1940 C   0  0  0  0  0  0  0  0  0  0  0  0
   -0.5983   -1.0528    1.8237 C   0  0  0  0  0  0  0  0  0  0  0  0
   -0.9931    0.2200   -0.6274 C   0  0  0  0  0  0  0  0  0  0  0  0
   -1.8912   -0.7596    1.3902 C   0  0  0  0  0  0  0  0  0  0  0  0
   -4.6077   -0.1251    0.4360 C   0  0  0  0  0  0  0  0  0  0  0  0
    5.2992    3.3112    0.2842 C   0  0  0  0  0  0  0  0  0  0  0  0
   -7.0740    0.2389   -0.0154 C   0  0  0  0  0  0  0  0  0  0  0  0
    8.5495    0.5631   -0.1376 C   0  0  0  0  0  0  0  0  0  0  0  0
   -8.0757    0.7163   -0.8463 C   0  0  0  0  0  0  0  0  0  0  0  0
   -9.2130    0.4191   -0.1431 C   0  0  0  0  0  0  0  0  0  0  0  0
  -10.6451    0.6239   -0.3937 C   0  0  0  0  0  0  0  0  0  0  0  0
    3.5520    0.8210    1.4953 H   0  0  0  0  0  0  0  0  0  0  0  0
    6.5086   -1.3725   -1.8170 H   0  0  0  0  0  0  0  0  0  0  0  0
    1.3700   -3.2842    0.2297 H   0  0  0  0  0  0  0  0  0  0  0  0
    2.9554   -4.2483   -1.4190 H   0  0  0  0  0  0  0  0  0  0  0  0
    1.1476    0.2162   -0.8093 H   0  0  0  0  0  0  0  0  0  0  0  0
   -0.4444   -1.5483    2.7778 H   0  0  0  0  0  0  0  0  0  0  0  0
   -2.6748   -1.0620    2.0682 H   0  0  0  0  0  0  0  0  0  0  0  0
   -3.4834    0.6189   -1.1415 H   0  0  0  0  0  0  0  0  0  0  0  0
   -5.4922    0.7677   -1.2198 H   0  0  0  0  0  0  0  0  0  0  0  0
    4.2060    3.3477    0.2397 H   0  0  0  0  0  0  0  0  0  0  0  0
    5.7182    3.3540   -0.7260 H   0  0  0  0  0  0  0  0  0  0  0  0
    5.6557    4.1777    0.8476 H   0  0  0  0  0  0  0  0  0  0  0  0
    9.4027    1.1071   -0.5517 H   0  0  0  0  0  0  0  0  0  0  0  0
    8.4209    0.8580    0.9087 H   0  0  0  0  0  0  0  0  0  0  0  0
    8.7533   -0.5104   -0.2033 H   0  0  0  0  0  0  0  0  0  0  0  0
   -8.0062    1.2026   -1.8080 H   0  0  0  0  0  0  0  0  0  0  0  0
  -11.0882    1.2446    0.3911 H   0  0  0  0  0  0  0  0  0  0  0  0
  -10.8109    1.1223   -1.3539 H   0  0  0  0  0  0  0  0  0  0  0  0
  -11.1731   -0.3345   -0.4138 H   0  0  0  0  0  0  0  0  0  0  0  0
  1 24  1  0  0  0  0
  2 13  1  0  0  0  0
  2 19  1  0  0  0  0
  3 15  1  0  0  0  0
  3 27  1  0  0  0  0
  4 17  1  0  0  0  0
  4 29  1  0  0  0  0
  5 10  1  0  0  0  0
  5 31  1  0  0  0  0
  6 26  2  0  0  0  0
  7 12  2  0  0  0  0
  7 20  1  0  0  0  0
  8 21  1  0  0  0  0
  8 26  1  0  0  0  0
  8 40  1  0  0  0  0
  9 26  1  0  0  0  0
  9 28  1  0  0  0  0
  9 41  1  0  0  0  0
 10 28  2  0  0  0  0
 11 12  1  0  0  0  0
 11 13  2  0  0  0  0
 11 14  1  0  0  0  0
 12 16  1  0  0  0  0
 13 18  1  0  0  0  0
 14 15  2  0  0  0  0
 14 33  1  0  0  0  0
 15 17  1  0  0  0  0
 16 17  2  0  0  0  0
 16 34  1  0  0  0  0
 18 20  2  0  0  0  0
 18 35  1  0  0  0  0
 19 22  2  0  0  0  0
 19 23  1  0  0  0  0
 20 36  1  0  0  0  0
 21 24  2  0  0  0  0
 21 25  1  0  0  0  0
 22 24  1  0  0  0  0
 22 37  1  0  0  0  0
 23 25  2  0  0  0  0
 23 38  1  0  0  0  0
 25 39  1  0  0  0  0
 27 42  1  0  0  0  0
 27 43  1  0  0  0  0
 27 44  1  0  0  0  0
 28 30  1  0  0  0  0
 29 45  1  0  0  0  0
 29 46  1  0  0  0  0
 29 47  1  0  0  0  0
 30 31  2  0  0  0  0
 30 48  1  0  0  0  0
 31 32  1  0  0  0  0
 32 49  1  0  0  0  0
 32 50  1  0  0  0  0
 32 51  1  0  0  0  0
M  END
