DB11951
 OpenBabel07062211533D

 50 53  0  0  1  0  0  0  0  0999 V2000
    4.1652   -0.2151   -3.3693 F   0  0  0  0  0  0  0  0  0  0  0  0
   -6.1006   -2.9404   -1.0588 F   0  0  0  0  0  0  0  0  0  0  0  0
    0.4992    0.7652    0.1125 O   0  0  0  0  0  0  0  0  0  0  0  0
   -0.4225   -2.8763    1.9710 O   0  0  0  0  0  0  0  0  0  0  0  0
   -0.7091   -2.3137   -0.2929 N   0  0  0  0  0  0  0  0  0  0  0  0
   -2.6074   -2.2227   -1.7233 N   0  0  0  0  0  0  0  0  0  0  0  0
   -1.9304    3.3967   -0.6669 N   0  0  0  0  0  0  0  0  0  0  0  0
   -1.7218    3.1770    1.7239 N   0  0  0  0  0  0  0  0  0  0  0  0
    2.0021   -0.8813    0.9392 C   0  0  2  0  0  0  0  0  0  0  0  0
    1.4425   -2.2592    0.7377 C   0  0  1  0  0  0  0  0  0  0  0  0
    2.2439   -1.9470    1.9675 C   0  0  0  0  0  0  0  0  0  0  0  0
    1.0284    0.1928    1.2988 C   0  0  0  0  0  0  0  0  0  0  0  0
    3.1510   -0.4033    0.1196 C   0  0  0  0  0  0  0  0  0  0  0  0
   -0.0009   -2.5188    0.8795 C   0  0  0  0  0  0  0  0  0  0  0  0
    3.1192   -0.5339   -1.2687 C   0  0  0  0  0  0  0  0  0  0  0  0
    4.2589    0.1737    0.7406 C   0  0  0  0  0  0  0  0  0  0  0  0
    4.1950   -0.0876   -2.0363 C   0  0  0  0  0  0  0  0  0  0  0  0
    5.3349    0.6198   -0.0269 C   0  0  0  0  0  0  0  0  0  0  0  0
   -0.4239    1.7678    0.2663 C   0  0  0  0  0  0  0  0  0  0  0  0
    5.3029    0.4894   -1.4153 C   0  0  0  0  0  0  0  0  0  0  0  0
   -2.1009   -2.4739   -0.4952 C   0  0  0  0  0  0  0  0  0  0  0  0
   -1.0197    2.4100   -0.7998 C   0  0  0  0  0  0  0  0  0  0  0  0
   -0.8175    2.1971    1.5174 C   0  0  0  0  0  0  0  0  0  0  0  0
   -2.8616   -2.8807    0.5890 C   0  0  0  0  0  0  0  0  0  0  0  0
   -0.6686    2.0252   -2.1988 C   0  0  0  0  0  0  0  0  0  0  0  0
   -4.2302   -3.0402    0.4009 C   0  0  0  0  0  0  0  0  0  0  0  0
   -2.2307    3.7253    0.6040 C   0  0  0  0  0  0  0  0  0  0  0  0
   -3.9413   -2.3883   -1.8680 C   0  0  0  0  0  0  0  0  0  0  0  0
   -4.7881   -2.7913   -0.8481 C   0  0  0  0  0  0  0  0  0  0  0  0
   -3.2331    4.8131    0.7923 C   0  0  0  0  0  0  0  0  0  0  0  0
    1.9362   -2.9088    0.0188 H   0  0  0  0  0  0  0  0  0  0  0  0
    1.7480   -1.8576    2.9272 H   0  0  0  0  0  0  0  0  0  0  0  0
    3.2272   -2.3997    2.0429 H   0  0  0  0  0  0  0  0  0  0  0  0
    1.5645    0.9601    1.8744 H   0  0  0  0  0  0  0  0  0  0  0  0
    0.2217   -0.2000    1.9298 H   0  0  0  0  0  0  0  0  0  0  0  0
    2.2614   -0.9764   -1.7683 H   0  0  0  0  0  0  0  0  0  0  0  0
    4.2959    0.2836    1.8213 H   0  0  0  0  0  0  0  0  0  0  0  0
   -0.1959   -2.0112   -1.1174 H   0  0  0  0  0  0  0  0  0  0  0  0
    6.1974    1.0694    0.4566 H   0  0  0  0  0  0  0  0  0  0  0  0
    6.1405    0.8365   -2.0130 H   0  0  0  0  0  0  0  0  0  0  0  0
   -0.4369    1.7945    2.4483 H   0  0  0  0  0  0  0  0  0  0  0  0
   -2.5007   -3.0908    1.5824 H   0  0  0  0  0  0  0  0  0  0  0  0
    0.3995    2.1813   -2.3815 H   0  0  0  0  0  0  0  0  0  0  0  0
   -1.2250    2.6276   -2.9246 H   0  0  0  0  0  0  0  0  0  0  0  0
   -0.9132    0.9731   -2.3778 H   0  0  0  0  0  0  0  0  0  0  0  0
   -4.8622   -3.3583    1.2246 H   0  0  0  0  0  0  0  0  0  0  0  0
   -4.3271   -2.1823   -2.8609 H   0  0  0  0  0  0  0  0  0  0  0  0
   -2.7190    5.7640    0.9606 H   0  0  0  0  0  0  0  0  0  0  0  0
   -3.8737    4.9132   -0.0896 H   0  0  0  0  0  0  0  0  0  0  0  0
   -3.8735    4.6019    1.6543 H   0  0  0  0  0  0  0  0  0  0  0  0
  1 17  1  0  0  0  0
  2 29  1  0  0  0  0
  3 12  1  0  0  0  0
  3 19  1  0  0  0  0
  4 14  2  0  0  0  0
  5 14  1  0  0  0  0
  5 21  1  0  0  0  0
  5 38  1  0  0  0  0
  6 21  2  0  0  0  0
  6 28  1  0  0  0  0
  7 22  2  0  0  0  0
  7 27  1  0  0  0  0
  8 23  1  0  0  0  0
  8 27  2  0  0  0  0
  9 10  1  6  0  0  0
  9 11  1  0  0  0  0
  9 12  1  0  0  0  0
  9 13  1  0  0  0  0
 10 11  1  0  0  0  0
 10 14  1  0  0  0  0
 10 31  1  6  0  0  0
 11 32  1  0  0  0  0
 11 33  1  0  0  0  0
 12 34  1  0  0  0  0
 12 35  1  0  0  0  0
 13 15  2  0  0  0  0
 13 16  1  0  0  0  0
 15 17  1  0  0  0  0
 15 36  1  0  0  0  0
 16 18  2  0  0  0  0
 16 37  1  0  0  0  0
 17 20  2  0  0  0  0
 18 20  1  0  0  0  0
 18 39  1  0  0  0  0
 19 22  1  0  0  0  0
 19 23  2  0  0  0  0
 20 40  1  0  0  0  0
 21 24  1  0  0  0  0
 22 25  1  0  0  0  0
 23 41  1  0  0  0  0
 24 26  2  0  0  0  0
 24 42  1  0  0  0  0
 25 43  1  0  0  0  0
 25 44  1  0  0  0  0
 25 45  1  0  0  0  0
 26 29  1  0  0  0  0
 26 46  1  0  0  0  0
 27 30  1  0  0  0  0
 28 29  2  0  0  0  0
 28 47  1  0  0  0  0
 30 48  1  0  0  0  0
 30 49  1  0  0  0  0
 30 50  1  0  0  0  0
M  END
