DB11703
 OpenBabel07062211533D

 58 62  0  0  1  0  0  0  0  0999 V2000
   -4.1083    0.9850    2.2831 O   0  0  0  0  0  0  0  0  0  0  0  0
    4.9018    0.5804   -2.1256 O   0  0  0  0  0  0  0  0  0  0  0  0
   -4.5831    0.8110    0.0187 N   0  0  0  0  0  0  0  0  0  0  0  0
   -2.6349   -2.3372    0.5130 N   0  0  0  0  0  0  0  0  0  0  0  0
   -1.9077   -0.4118   -0.3171 N   0  0  0  0  0  0  0  0  0  0  0  0
   -1.3558   -4.6353    1.3966 N   0  0  0  0  0  0  0  0  0  0  0  0
    0.7584   -3.7967    0.9462 N   0  0  0  0  0  0  0  0  0  0  0  0
    5.3441    0.4623    0.1758 N   0  0  0  0  0  0  0  0  0  0  0  0
    7.3076    0.8395    1.4656 N   0  0  0  0  0  0  0  0  0  0  0  0
   -4.4122   -0.6412   -0.0967 C   0  0  1  0  0  0  0  0  0  0  0  0
   -5.0260   -0.9755   -1.4627 C   0  0  0  0  0  0  0  0  0  0  0  0
   -4.8193    0.2983   -2.2765 C   0  0  0  0  0  0  0  0  0  0  0  0
   -5.0097    1.4021   -1.2476 C   0  0  0  0  0  0  0  0  0  0  0  0
   -2.9731   -1.1072    0.0232 C   0  0  0  0  0  0  0  0  0  0  0  0
   -1.2642   -2.4292    0.4826 C   0  0  0  0  0  0  0  0  0  0  0  0
   -4.4672    1.4873    1.2232 C   0  0  0  0  0  0  0  0  0  0  0  0
   -0.8376   -1.2285   -0.0337 C   0  0  0  0  0  0  0  0  0  0  0  0
   -3.3886   -3.3916    0.9848 C   0  0  0  0  0  0  0  0  0  0  0  0
   -0.6095   -3.6420    0.9501 C   0  0  0  0  0  0  0  0  0  0  0  0
    0.5156   -0.8268   -0.2667 C   0  0  0  0  0  0  0  0  0  0  0  0
   -2.7340   -4.4882    1.4040 C   0  0  0  0  0  0  0  0  0  0  0  0
   -4.7960    2.8952    1.2246 C   0  0  0  0  0  0  0  0  0  0  0  0
    1.2311   -0.1701    0.7346 C   0  0  0  0  0  0  0  0  0  0  0  0
    1.1193   -1.0909   -1.4963 C   0  0  0  0  0  0  0  0  0  0  0  0
    2.5500    0.2221    0.5065 C   0  0  0  0  0  0  0  0  0  0  0  0
    2.4381   -0.6988   -1.7244 C   0  0  0  0  0  0  0  0  0  0  0  0
    3.1536   -0.0422   -0.7229 C   0  0  0  0  0  0  0  0  0  0  0  0
   -5.0691    4.0644    1.2256 C   0  0  0  0  0  0  0  0  0  0  0  0
    4.5289    0.3664   -0.9607 C   0  0  0  0  0  0  0  0  0  0  0  0
   -5.4017    5.4882    1.2269 C   0  0  0  0  0  0  0  0  0  0  0  0
    6.7155    0.8091    0.2507 C   0  0  0  0  0  0  0  0  0  0  0  0
    7.3674    1.0976   -0.9374 C   0  0  0  0  0  0  0  0  0  0  0  0
    8.7137    1.4389   -0.8745 C   0  0  0  0  0  0  0  0  0  0  0  0
    8.6170    1.1754    1.4873 C   0  0  0  0  0  0  0  0  0  0  0  0
    9.3580    1.4808    0.3570 C   0  0  0  0  0  0  0  0  0  0  0  0
   -5.0024   -1.0961    0.7076 H   0  0  0  0  0  0  0  0  0  0  0  0
   -4.5910   -1.8564   -1.9447 H   0  0  0  0  0  0  0  0  0  0  0  0
   -6.1031   -1.1511   -1.3466 H   0  0  0  0  0  0  0  0  0  0  0  0
   -3.7961    0.3244   -2.6698 H   0  0  0  0  0  0  0  0  0  0  0  0
   -5.5108    0.3844   -3.1190 H   0  0  0  0  0  0  0  0  0  0  0  0
   -4.4248    2.2977   -1.4758 H   0  0  0  0  0  0  0  0  0  0  0  0
   -6.0653    1.6790   -1.1507 H   0  0  0  0  0  0  0  0  0  0  0  0
   -4.4672   -3.3102    1.0001 H   0  0  0  0  0  0  0  0  0  0  0  0
   -3.2902   -5.3400    1.7805 H   0  0  0  0  0  0  0  0  0  0  0  0
    0.7716    0.0507    1.6952 H   0  0  0  0  0  0  0  0  0  0  0  0
    0.5754   -1.6027   -2.2868 H   0  0  0  0  0  0  0  0  0  0  0  0
    1.3937   -3.0792    0.6190 H   0  0  0  0  0  0  0  0  0  0  0  0
    1.1793   -4.6574    1.2801 H   0  0  0  0  0  0  0  0  0  0  0  0
    3.0520    0.7641    1.3023 H   0  0  0  0  0  0  0  0  0  0  0  0
    2.8905   -0.9194   -2.6877 H   0  0  0  0  0  0  0  0  0  0  0  0
   -5.5022    5.8651    0.2045 H   0  0  0  0  0  0  0  0  0  0  0  0
   -6.3466    5.6667    1.7489 H   0  0  0  0  0  0  0  0  0  0  0  0
   -4.6219    6.0697    1.7278 H   0  0  0  0  0  0  0  0  0  0  0  0
    4.9577    0.2233    1.0841 H   0  0  0  0  0  0  0  0  0  0  0  0
    6.9382    1.0866   -1.9254 H   0  0  0  0  0  0  0  0  0  0  0  0
    9.2617    1.6721   -1.7827 H   0  0  0  0  0  0  0  0  0  0  0  0
    9.0726    1.1937    2.4718 H   0  0  0  0  0  0  0  0  0  0  0  0
   10.4069    1.7442    0.4298 H   0  0  0  0  0  0  0  0  0  0  0  0
  1 16  2  0  0  0  0
  2 29  2  0  0  0  0
  3 10  1  0  0  0  0
  3 13  1  0  0  0  0
  3 16  1  0  0  0  0
  4 14  1  0  0  0  0
  4 15  1  0  0  0  0
  4 18  2  0  0  0  0
  5 14  2  0  0  0  0
  5 17  1  0  0  0  0
  6 19  1  0  0  0  0
  6 21  2  0  0  0  0
  7 19  1  0  0  0  0
  7 47  1  0  0  0  0
  7 48  1  0  0  0  0
  8 29  1  0  0  0  0
  8 31  1  0  0  0  0
  8 54  1  0  0  0  0
  9 31  2  0  0  0  0
  9 34  1  0  0  0  0
 10 11  1  0  0  0  0
 10 14  1  0  0  0  0
 10 36  1  1  0  0  0
 11 12  1  0  0  0  0
 11 37  1  0  0  0  0
 11 38  1  0  0  0  0
 12 13  1  0  0  0  0
 12 39  1  0  0  0  0
 12 40  1  0  0  0  0
 13 41  1  0  0  0  0
 13 42  1  0  0  0  0
 15 17  2  0  0  0  0
 15 19  2  0  0  0  0
 16 22  1  0  0  0  0
 17 20  1  0  0  0  0
 18 21  1  0  0  0  0
 18 43  1  0  0  0  0
 20 23  2  0  0  0  0
 20 24  1  0  0  0  0
 21 44  1  0  0  0  0
 22 28  3  0  0  0  0
 23 25  1  0  0  0  0
 23 45  1  0  0  0  0
 24 26  2  0  0  0  0
 24 46  1  0  0  0  0
 25 27  2  0  0  0  0
 25 49  1  0  0  0  0
 26 27  1  0  0  0  0
 26 50  1  0  0  0  0
 27 29  1  0  0  0  0
 28 30  1  0  0  0  0
 30 51  1  0  0  0  0
 30 52  1  0  0  0  0
 30 53  1  0  0  0  0
 31 32  1  0  0  0  0
 32 33  2  0  0  0  0
 32 55  1  0  0  0  0
 33 35  1  0  0  0  0
 33 56  1  0  0  0  0
 34 35  2  0  0  0  0
 34 57  1  0  0  0  0
 35 58  1  0  0  0  0
M  END
