DB11886
 OpenBabel07062211533D

 69 72  0  0  0  0  0  0  0  0999 V2000
   -1.6126    0.4757    2.6281 Cl  0  0  0  0  0  0  0  0  0  0  0  0
   -3.1608    3.3535   -1.7225 Cl  0  0  0  0  0  0  0  0  0  0  0  0
   -0.5788    4.7583   -1.2754 O   0  0  0  0  0  0  0  0  0  0  0  0
    0.7728    2.2495    2.5145 O   0  0  0  0  0  0  0  0  0  0  0  0
   -4.4383    1.6995    2.4343 O   0  0  0  0  0  0  0  0  0  0  0  0
    5.1840   -0.9570    0.1347 N   0  0  0  0  0  0  0  0  0  0  0  0
    2.4084   -1.5479   -0.1911 N   0  0  0  0  0  0  0  0  0  0  0  0
   -2.8909   -3.1696   -0.9911 N   0  0  0  0  0  0  0  0  0  0  0  0
   -5.1434   -2.8856   -1.6865 N   0  0  0  0  0  0  0  0  0  0  0  0
   -5.5621    0.2494    0.9681 N   0  0  0  0  0  0  0  0  0  0  0  0
   -6.4928   -1.1553   -0.6903 N   0  0  0  0  0  0  0  0  0  0  0  0
   -3.4527    1.2341    0.3823 N   0  0  0  0  0  0  0  0  0  0  0  0
    4.3652   -0.1847   -0.8077 C   0  0  0  0  0  0  0  0  0  0  0  0
    4.3705   -1.3605    1.2885 C   0  0  0  0  0  0  0  0  0  0  0  0
    3.1821   -1.0126   -1.3155 C   0  0  0  0  0  0  0  0  0  0  0  0
    3.1885   -2.2283    0.8503 C   0  0  0  0  0  0  0  0  0  0  0  0
    6.3400   -0.1745    0.5708 C   0  0  0  0  0  0  0  0  0  0  0  0
    1.0839   -1.9530   -0.3903 C   0  0  0  0  0  0  0  0  0  0  0  0
    7.2174    0.2120   -0.6078 C   0  0  0  0  0  0  0  0  0  0  0  0
    0.1340   -1.0356   -0.8399 C   0  0  0  0  0  0  0  0  0  0  0  0
    0.7134   -3.2742   -0.1397 C   0  0  0  0  0  0  0  0  0  0  0  0
   -1.1862   -1.4393   -1.0385 C   0  0  0  0  0  0  0  0  0  0  0  0
   -0.6069   -3.6780   -0.3383 C   0  0  0  0  0  0  0  0  0  0  0  0
   -1.5566   -2.7606   -0.7878 C   0  0  0  0  0  0  0  0  0  0  0  0
   -4.1215   -2.4904   -0.8993 C   0  0  0  0  0  0  0  0  0  0  0  0
   -4.2072   -1.4509    0.0042 C   0  0  0  0  0  0  0  0  0  0  0  0
   -5.4294   -0.8131    0.0663 C   0  0  0  0  0  0  0  0  0  0  0  0
   -6.2832   -2.1850   -1.5325 C   0  0  0  0  0  0  0  0  0  0  0  0
   -4.4559    1.1117    1.3518 C   0  0  0  0  0  0  0  0  0  0  0  0
   -2.2620    1.9961    0.4629 C   0  0  0  0  0  0  0  0  0  0  0  0
   -6.9148    0.5837    1.5104 C   0  0  0  0  0  0  0  0  0  0  0  0
   -1.3310    1.7321    1.4674 C   0  0  0  0  0  0  0  0  0  0  0  0
   -2.0195    3.0101   -0.4639 C   0  0  0  0  0  0  0  0  0  0  0  0
   -0.8460    3.7601   -0.3859 C   0  0  0  0  0  0  0  0  0  0  0  0
   -0.1576    2.4823    1.5455 C   0  0  0  0  0  0  0  0  0  0  0  0
    0.0848    3.4962    0.6187 C   0  0  0  0  0  0  0  0  0  0  0  0
    0.1314    4.3976   -2.4580 C   0  0  0  0  0  0  0  0  0  0  0  0
    1.7978    1.3052    2.2132 C   0  0  0  0  0  0  0  0  0  0  0  0
    4.0052   -0.4806    1.8316 H   0  0  0  0  0  0  0  0  0  0  0  0
    4.9794   -1.9437    1.9901 H   0  0  0  0  0  0  0  0  0  0  0  0
    4.9335    0.1006   -1.6986 H   0  0  0  0  0  0  0  0  0  0  0  0
    3.9977    0.7385   -0.3409 H   0  0  0  0  0  0  0  0  0  0  0  0
    2.5718   -2.4255    1.7363 H   0  0  0  0  0  0  0  0  0  0  0  0
    3.5620   -3.1885    0.4714 H   0  0  0  0  0  0  0  0  0  0  0  0
    3.5397   -1.8445   -1.9360 H   0  0  0  0  0  0  0  0  0  0  0  0
    2.5651   -0.3725   -1.9567 H   0  0  0  0  0  0  0  0  0  0  0  0
    6.9454   -0.7821    1.2548 H   0  0  0  0  0  0  0  0  0  0  0  0
    6.0396    0.7281    1.1178 H   0  0  0  0  0  0  0  0  0  0  0  0
    7.4202   -0.6431   -1.2616 H   0  0  0  0  0  0  0  0  0  0  0  0
    6.7864    1.0222   -1.2035 H   0  0  0  0  0  0  0  0  0  0  0  0
    8.1831    0.5761   -0.2393 H   0  0  0  0  0  0  0  0  0  0  0  0
    0.4030   -0.0007   -1.0351 H   0  0  0  0  0  0  0  0  0  0  0  0
    1.4266   -4.0218    0.1946 H   0  0  0  0  0  0  0  0  0  0  0  0
   -1.8972   -0.7101   -1.4159 H   0  0  0  0  0  0  0  0  0  0  0  0
   -0.8842   -4.7108   -0.1432 H   0  0  0  0  0  0  0  0  0  0  0  0
   -2.9616   -4.0448   -1.5027 H   0  0  0  0  0  0  0  0  0  0  0  0
   -3.3920   -1.2268    0.6790 H   0  0  0  0  0  0  0  0  0  0  0  0
   -7.1206   -2.4811   -2.1523 H   0  0  0  0  0  0  0  0  0  0  0  0
   -6.8480    1.3805    2.2552 H   0  0  0  0  0  0  0  0  0  0  0  0
   -7.5472    0.9245    0.6853 H   0  0  0  0  0  0  0  0  0  0  0  0
   -7.3394   -0.3128    1.9711 H   0  0  0  0  0  0  0  0  0  0  0  0
   -3.8042    1.1384   -0.5687 H   0  0  0  0  0  0  0  0  0  0  0  0
    0.9990    4.0818    0.6803 H   0  0  0  0  0  0  0  0  0  0  0  0
   -0.3791    3.5943   -2.9981 H   0  0  0  0  0  0  0  0  0  0  0  0
    0.1841    5.2760   -3.1070 H   0  0  0  0  0  0  0  0  0  0  0  0
    1.1508    4.0876   -2.2067 H   0  0  0  0  0  0  0  0  0  0  0  0
    2.4835    1.2631    3.0637 H   0  0  0  0  0  0  0  0  0  0  0  0
    2.3589    1.6181    1.3275 H   0  0  0  0  0  0  0  0  0  0  0  0
    1.3746    0.3090    2.0577 H   0  0  0  0  0  0  0  0  0  0  0  0
  1 32  1  0  0  0  0
  2 33  1  0  0  0  0
  3 34  1  0  0  0  0
  3 37  1  0  0  0  0
  4 35  1  0  0  0  0
  4 38  1  0  0  0  0
  5 29  2  0  0  0  0
  6 13  1  0  0  0  0
  6 14  1  0  0  0  0
  6 17  1  0  0  0  0
  7 15  1  0  0  0  0
  7 16  1  0  0  0  0
  7 18  1  0  0  0  0
  8 24  1  0  0  0  0
  8 25  1  0  0  0  0
  8 56  1  0  0  0  0
  9 25  2  0  0  0  0
  9 28  1  0  0  0  0
 10 27  1  0  0  0  0
 10 29  1  0  0  0  0
 10 31  1  0  0  0  0
 11 27  1  0  0  0  0
 11 28  2  0  0  0  0
 12 29  1  0  0  0  0
 12 30  1  0  0  0  0
 12 62  1  0  0  0  0
 13 15  1  0  0  0  0
 13 41  1  0  0  0  0
 13 42  1  0  0  0  0
 14 16  1  0  0  0  0
 14 39  1  0  0  0  0
 14 40  1  0  0  0  0
 15 45  1  0  0  0  0
 15 46  1  0  0  0  0
 16 43  1  0  0  0  0
 16 44  1  0  0  0  0
 17 19  1  0  0  0  0
 17 47  1  0  0  0  0
 17 48  1  0  0  0  0
 18 20  2  0  0  0  0
 18 21  1  0  0  0  0
 19 49  1  0  0  0  0
 19 50  1  0  0  0  0
 19 51  1  0  0  0  0
 20 22  1  0  0  0  0
 20 52  1  0  0  0  0
 21 23  2  0  0  0  0
 21 53  1  0  0  0  0
 22 24  2  0  0  0  0
 22 54  1  0  0  0  0
 23 24  1  0  0  0  0
 23 55  1  0  0  0  0
 25 26  1  0  0  0  0
 26 27  2  0  0  0  0
 26 57  1  0  0  0  0
 28 58  1  0  0  0  0
 30 32  2  0  0  0  0
 30 33  1  0  0  0  0
 31 59  1  0  0  0  0
 31 60  1  0  0  0  0
 31 61  1  0  0  0  0
 32 35  1  0  0  0  0
 33 34  2  0  0  0  0
 34 36  1  0  0  0  0
 35 36  2  0  0  0  0
 36 63  1  0  0  0  0
 37 64  1  0  0  0  0
 37 65  1  0  0  0  0
 37 66  1  0  0  0  0
 38 67  1  0  0  0  0
 38 68  1  0  0  0  0
 38 69  1  0  0  0  0
M  END
