DB11817
 OpenBabel07062211533D

 43 46  0  0  1  0  0  0  0  0999 V2000
    4.2705    1.2822   -0.2311 S   0  0  0  0  0  0  0  0  0  0  0  0
    4.9562    2.1298    0.7180 O   0  0  0  0  0  0  0  0  0  0  0  0
    3.6279    1.8197   -1.4091 O   0  0  0  0  0  0  0  0  0  0  0  0
    3.1382    0.3127    0.6172 N   0  0  0  0  0  0  0  0  0  0  0  0
   -0.0867   -0.4649    0.3374 N   0  0  0  0  0  0  0  0  0  0  0  0
   -0.3710   -1.1289   -0.7961 N   0  0  0  0  0  0  0  0  0  0  0  0
    0.8146   -3.9740    1.4612 N   0  0  0  0  0  0  0  0  0  0  0  0
   -3.5177    1.9432    0.6347 N   0  0  0  0  0  0  0  0  0  0  0  0
   -6.7893    0.0604   -0.8061 N   0  0  0  0  0  0  0  0  0  0  0  0
   -5.9293    2.0179    0.3084 N   0  0  0  0  0  0  0  0  0  0  0  0
    1.2065   -0.5518    0.9898 C   0  0  0  0  0  0  0  0  0  0  0  0
    2.3469   -0.8064   -0.0083 C   0  0  0  0  0  0  0  0  0  0  0  0
    1.8481    0.8287    1.1995 C   0  0  0  0  0  0  0  0  0  0  0  0
    1.1271   -1.4594    2.1846 C   0  0  0  0  0  0  0  0  0  0  0  0
    5.3956    0.0123   -0.7485 C   0  0  0  0  0  0  0  0  0  0  0  0
   -1.1198    0.2923    0.8062 C   0  0  0  0  0  0  0  0  0  0  0  0
   -2.1514    0.1113   -0.0823 C   0  0  0  0  0  0  0  0  0  0  0  0
    0.9523   -2.8688    1.7865 C   0  0  0  0  0  0  0  0  0  0  0  0
   -1.6335   -0.7729   -1.0476 C   0  0  0  0  0  0  0  0  0  0  0  0
    6.5450    0.5823   -1.5492 C   0  0  0  0  0  0  0  0  0  0  0  0
   -3.4319    0.7316    0.0382 C   0  0  2  0  0  0  0  0  0  0  0  0
   -4.5879    0.1196   -0.4440 C   0  0  0  0  0  0  0  0  0  0  0  0
   -5.7784    0.8156   -0.2736 C   0  0  0  0  0  0  0  0  0  0  0  0
   -4.9094   -1.0943   -1.1037 C   0  0  0  0  0  0  0  0  0  0  0  0
   -4.7444    2.5036    0.7314 C   0  0  0  0  0  0  0  0  0  0  0  0
   -6.2719   -1.1039   -1.3136 C   0  0  0  0  0  0  0  0  0  0  0  0
    2.8709   -1.7636    0.0670 H   0  0  0  0  0  0  0  0  0  0  0  0
    2.1461   -0.5974   -1.0656 H   0  0  0  0  0  0  0  0  0  0  0  0
    1.4448    1.6553    0.6026 H   0  0  0  0  0  0  0  0  0  0  0  0
    1.9654    1.1581    2.2360 H   0  0  0  0  0  0  0  0  0  0  0  0
    0.3203   -1.1628    2.8661 H   0  0  0  0  0  0  0  0  0  0  0  0
    2.0505   -1.3919    2.7747 H   0  0  0  0  0  0  0  0  0  0  0  0
    5.7707   -0.4884    0.1490 H   0  0  0  0  0  0  0  0  0  0  0  0
    4.8416   -0.7053   -1.3603 H   0  0  0  0  0  0  0  0  0  0  0  0
   -1.0365    0.8783    1.7126 H   0  0  0  0  0  0  0  0  0  0  0  0
   -2.1011   -1.1677   -1.9377 H   0  0  0  0  0  0  0  0  0  0  0  0
    6.1863    1.0913   -2.4496 H   0  0  0  0  0  0  0  0  0  0  0  0
    7.1156    1.3083   -0.9610 H   0  0  0  0  0  0  0  0  0  0  0  0
    7.2267   -0.2159   -1.8583 H   0  0  0  0  0  0  0  0  0  0  0  0
   -4.2441   -1.8949   -1.3925 H   0  0  0  0  0  0  0  0  0  0  0  0
   -7.7656    0.3207   -0.8215 H   0  0  0  0  0  0  0  0  0  0  0  0
   -6.9188   -1.8363   -1.7757 H   0  0  0  0  0  0  0  0  0  0  0  0
   -4.7791    3.4741    1.2143 H   0  0  0  0  0  0  0  0  0  0  0  0
  1  2  2  0  0  0  0
  1  3  2  0  0  0  0
  1  4  1  0  0  0  0
  1 15  1  0  0  0  0
  4 12  1  0  0  0  0
  4 13  1  0  0  0  0
  5  6  1  0  0  0  0
  5 11  1  0  0  0  0
  5 16  2  0  0  0  0
  6 19  1  0  0  0  0
  7 18  3  0  0  0  0
  8 21  1  0  0  0  0
  8 25  2  0  0  0  0
  9 23  1  0  0  0  0
  9 26  2  0  0  0  0
  9 41  1  0  0  0  0
 10 23  2  0  0  0  0
 10 25  1  0  0  0  0
 11 12  1  0  0  0  0
 11 13  1  0  0  0  0
 11 14  1  0  0  0  0
 12 27  1  0  0  0  0
 12 28  1  0  0  0  0
 13 29  1  0  0  0  0
 13 30  1  0  0  0  0
 14 18  1  0  0  0  0
 14 31  1  0  0  0  0
 14 32  1  0  0  0  0
 15 20  1  0  0  0  0
 15 33  1  0  0  0  0
 15 34  1  0  0  0  0
 16 17  1  0  0  0  0
 16 35  1  0  0  0  0
 17 19  2  0  0  0  0
 19 36  1  0  0  0  0
 20 37  1  0  0  0  0
 20 38  1  0  0  0  0
 20 39  1  0  0  0  0
 21 17  1  6  0  0  0
 21 22  1  0  0  0  0
 22 23  2  0  0  0  0
 22 24  2  0  0  0  0
 24 26  1  0  0  0  0
 24 40  1  0  0  0  0
 25 43  1  0  0  0  0
 26 42  1  0  0  0  0
M  END
