DB11799
 OpenBabel07062211533D

 50 54  0  0  1  0  0  0  0  0999 V2000
    5.7641    1.8965   -1.4152 F   0  0  0  0  0  0  0  0  0  0  0  0
    5.9061   -2.5304    0.2945 F   0  0  0  0  0  0  0  0  0  0  0  0
    8.6714    0.8248    2.1604 F   0  0  0  0  0  0  0  0  0  0  0  0
   -4.5036   -1.7981    0.2068 O   0  0  0  0  0  0  0  0  0  0  0  0
   -2.7772    2.5544    0.9118 O   0  0  0  0  0  0  0  0  0  0  0  0
   -0.3553    3.0721    0.1036 O   0  0  0  0  0  0  0  0  0  0  0  0
    2.1066    1.9055   -0.3788 O   0  0  0  0  0  0  0  0  0  0  0  0
    2.8283   -2.0929    0.1168 O   0  0  0  0  0  0  0  0  0  0  0  0
   -3.6577    0.4652    0.4558 N   0  0  0  0  0  0  0  0  0  0  0  0
   -1.0504   -0.5560    0.2602 N   0  0  0  0  0  0  0  0  0  0  0  0
    3.4510   -0.2851   -1.2178 N   0  0  0  0  0  0  0  0  0  0  0  0
   -5.0524    0.9126    0.5856 C   0  0  2  0  0  0  0  0  0  0  0  0
   -5.8209   -1.2387    0.2369 C   0  0  1  0  0  0  0  0  0  0  0  0
   -5.8478   -0.1627    1.3096 C   0  0  0  0  0  0  0  0  0  0  0  0
   -5.7182    0.9573   -0.7969 C   0  0  0  0  0  0  0  0  0  0  0  0
   -6.1622   -0.4915   -1.0577 C   0  0  0  0  0  0  0  0  0  0  0  0
   -3.4328   -0.8819   -0.0768 C   0  0  1  0  0  0  0  0  0  0  0  0
   -2.1641   -1.4628    0.5212 C   0  0  0  0  0  0  0  0  0  0  0  0
   -2.6110    1.3802    0.5827 C   0  0  0  0  0  0  0  0  0  0  0  0
   -1.2281    0.8332    0.2995 C   0  0  0  0  0  0  0  0  0  0  0  0
    0.2231   -1.0621    0.0393 C   0  0  0  0  0  0  0  0  0  0  0  0
   -0.2135    1.7027    0.0948 C   0  0  0  0  0  0  0  0  0  0  0  0
    1.3158   -0.3199   -0.1760 C   0  0  1  0  0  0  0  0  0  0  0  0
    1.1561    1.1579   -0.1734 C   0  0  0  0  0  0  0  0  0  0  0  0
    2.5923   -0.9987   -0.3981 C   0  0  0  0  0  0  0  0  0  0  0  0
    4.7711   -0.7468   -1.5839 C   0  0  0  0  0  0  0  0  0  0  0  0
    5.8102   -0.3271   -0.5847 C   0  0  0  0  0  0  0  0  0  0  0  0
    6.2578    0.9937   -0.5564 C   0  0  0  0  0  0  0  0  0  0  0  0
    6.3291   -1.2588    0.3145 C   0  0  0  0  0  0  0  0  0  0  0  0
    7.2242    1.3828    0.3713 C   0  0  0  0  0  0  0  0  0  0  0  0
    7.2953   -0.8696    1.2420 C   0  0  0  0  0  0  0  0  0  0  0  0
    7.7428    0.4511    1.2705 C   0  0  0  0  0  0  0  0  0  0  0  0
   -5.1018    1.8815    1.0906 H   0  0  0  0  0  0  0  0  0  0  0  0
   -6.5249   -2.0503    0.4401 H   0  0  0  0  0  0  0  0  0  0  0  0
   -5.3652   -0.4797    2.2399 H   0  0  0  0  0  0  0  0  0  0  0  0
   -6.8702    0.1701    1.5198 H   0  0  0  0  0  0  0  0  0  0  0  0
   -5.0505    1.3272   -1.5818 H   0  0  0  0  0  0  0  0  0  0  0  0
   -6.6005    1.6077   -0.7706 H   0  0  0  0  0  0  0  0  0  0  0  0
   -7.2424   -0.5090   -1.2410 H   0  0  0  0  0  0  0  0  0  0  0  0
   -5.6572   -0.9158   -1.9310 H   0  0  0  0  0  0  0  0  0  0  0  0
   -3.3304   -0.7934   -1.1659 H   0  0  0  0  0  0  0  0  0  0  0  0
   -2.2758   -1.6059    1.6043 H   0  0  0  0  0  0  0  0  0  0  0  0
   -1.9871   -2.4589    0.0948 H   0  0  0  0  0  0  0  0  0  0  0  0
    0.2581   -2.1467    0.0515 H   0  0  0  0  0  0  0  0  0  0  0  0
   -1.2879    3.3087    0.2210 H   0  0  0  0  0  0  0  0  0  0  0  0
    3.1579    0.6076   -1.6027 H   0  0  0  0  0  0  0  0  0  0  0  0
    5.0082   -0.3300   -2.5694 H   0  0  0  0  0  0  0  0  0  0  0  0
    4.7477   -1.8366   -1.6969 H   0  0  0  0  0  0  0  0  0  0  0  0
    7.5725    2.4111    0.3935 H   0  0  0  0  0  0  0  0  0  0  0  0
    7.6993   -1.5948    1.9419 H   0  0  0  0  0  0  0  0  0  0  0  0
  1 28  1  0  0  0  0
  2 29  1  0  0  0  0
  3 32  1  0  0  0  0
  4 13  1  0  0  0  0
  4 17  1  0  0  0  0
  5 19  2  0  0  0  0
  6 22  1  0  0  0  0
  6 45  1  0  0  0  0
  7 24  2  0  0  0  0
  8 25  2  0  0  0  0
  9 12  1  0  0  0  0
  9 17  1  0  0  0  0
  9 19  1  0  0  0  0
 10 18  1  0  0  0  0
 10 20  1  0  0  0  0
 10 21  2  0  0  0  0
 11 25  1  0  0  0  0
 11 26  1  0  0  0  0
 11 46  1  0  0  0  0
 12 14  1  0  0  0  0
 12 15  1  0  0  0  0
 12 33  1  1  0  0  0
 13 14  1  0  0  0  0
 13 16  1  0  0  0  0
 13 34  1  1  0  0  0
 14 35  1  0  0  0  0
 14 36  1  0  0  0  0
 15 16  1  0  0  0  0
 15 37  1  0  0  0  0
 15 38  1  0  0  0  0
 16 39  1  0  0  0  0
 16 40  1  0  0  0  0
 17 18  1  0  0  0  0
 17 41  1  6  0  0  0
 18 42  1  0  0  0  0
 18 43  1  0  0  0  0
 19 20  1  0  0  0  0
 20 22  2  0  0  0  0
 21 23  1  0  0  0  0
 21 44  1  0  0  0  0
 22 24  1  0  0  0  0
 23 24  1  0  0  0  0
 23 25  1  1  0  0  0
 26 27  1  0  0  0  0
 26 47  1  0  0  0  0
 26 48  1  0  0  0  0
 27 28  2  0  0  0  0
 27 29  1  0  0  0  0
 28 30  1  0  0  0  0
 29 31  2  0  0  0  0
 30 32  2  0  0  0  0
 30 49  1  0  0  0  0
 31 32  1  0  0  0  0
 31 50  1  0  0  0  0
M  END
