DB11986
 OpenBabel07062211533D

 75 80  0  0  0  0  0  0  0  0999 V2000
    7.0759   -3.0655    1.0861 F   0  0  0  0  0  0  0  0  0  0  0  0
    3.6357   -4.7010   -1.7280 F   0  0  0  0  0  0  0  0  0  0  0  0
    1.8674   -2.4392    1.5796 O   0  0  0  0  0  0  0  0  0  0  0  0
   -0.0586    4.1585    1.5542 O   0  0  0  0  0  0  0  0  0  0  0  0
   -4.9007    0.5066   -0.2628 N   0  0  0  0  0  0  0  0  0  0  0  0
   -7.2330   -0.9875   -0.9610 N   0  0  0  0  0  0  0  0  0  0  0  0
   -0.4467    0.3861    1.6289 N   0  0  0  0  0  0  0  0  0  0  0  0
    1.1210    2.5718    0.2908 N   0  0  0  0  0  0  0  0  0  0  0  0
    4.1270    4.2064    0.8766 N   0  0  0  0  0  0  0  0  0  0  0  0
    2.7997    4.1228    1.0663 N   0  0  0  0  0  0  0  0  0  0  0  0
   -0.5961   -0.9965    2.0383 C   0  0  0  0  0  0  0  0  0  0  0  0
   -0.3930   -1.9280    0.8416 C   0  0  0  0  0  0  0  0  0  0  0  0
    0.3975   -1.3179    3.1557 C   0  0  0  0  0  0  0  0  0  0  0  0
   -5.3832   -0.5579    0.6224 C   0  0  0  0  0  0  0  0  0  0  0  0
   -5.3136    0.4002   -1.6679 C   0  0  0  0  0  0  0  0  0  0  0  0
   -6.8905   -0.7596    0.4481 C   0  0  0  0  0  0  0  0  0  0  0  0
   -6.8231    0.1687   -1.7678 C   0  0  0  0  0  0  0  0  0  0  0  0
   -3.6903    1.1490    0.0199 C   0  0  0  0  0  0  0  0  0  0  0  0
    1.0777   -2.0553    0.4552 C   0  0  0  0  0  0  0  0  0  0  0  0
    1.8195   -1.4703    2.6253 C   0  0  0  0  0  0  0  0  0  0  0  0
   -1.4652    1.1009    0.9600 C   0  0  0  0  0  0  0  0  0  0  0  0
   -2.6715    0.4599    0.6779 C   0  0  0  0  0  0  0  0  0  0  0  0
   -1.2777    2.4310    0.5842 C   0  0  0  0  0  0  0  0  0  0  0  0
   -3.5027    2.4792   -0.3558 C   0  0  0  0  0  0  0  0  0  0  0  0
   -8.6675   -1.2323   -1.1073 C   0  0  0  0  0  0  0  0  0  0  0  0
   -2.2964    3.1202   -0.0736 C   0  0  0  0  0  0  0  0  0  0  0  0
   -0.0291    3.1289    0.8636 C   0  0  0  0  0  0  0  0  0  0  0  0
    2.4563    3.0386    0.3675 C   0  0  0  0  0  0  0  0  0  0  0  0
    3.5567    2.4263   -0.2702 C   0  0  0  0  0  0  0  0  0  0  0  0
    4.6438    3.2178    0.0832 C   0  0  0  0  0  0  0  0  0  0  0  0
    3.7592    1.3078   -1.0956 C   0  0  0  0  0  0  0  0  0  0  0  0
    5.0589    1.0284   -1.5366 C   0  0  0  0  0  0  0  0  0  0  0  0
    5.2968   -0.1549   -2.4156 C   0  0  0  0  0  0  0  0  0  0  0  0
    5.9472    2.9568   -0.3450 C   0  0  0  0  0  0  0  0  0  0  0  0
    6.1327    1.8401   -1.1665 C   0  0  0  0  0  0  0  0  0  0  0  0
    5.3177   -1.4754   -1.6738 C   0  0  0  0  0  0  0  0  0  0  0  0
    4.4499   -2.5006   -2.0501 C   0  0  0  0  0  0  0  0  0  0  0  0
    6.2048   -1.6662   -0.6145 C   0  0  0  0  0  0  0  0  0  0  0  0
    6.2242   -2.8822    0.0686 C   0  0  0  0  0  0  0  0  0  0  0  0
    4.4691   -3.7164   -1.3668 C   0  0  0  0  0  0  0  0  0  0  0  0
    5.3563   -3.9073   -0.3075 C   0  0  0  0  0  0  0  0  0  0  0  0
   -1.5882   -1.1543    2.4776 H   0  0  0  0  0  0  0  0  0  0  0  0
   -0.9710   -1.6246   -0.0367 H   0  0  0  0  0  0  0  0  0  0  0  0
   -0.7524   -2.9240    1.1320 H   0  0  0  0  0  0  0  0  0  0  0  0
    0.0996   -2.2705    3.6129 H   0  0  0  0  0  0  0  0  0  0  0  0
    0.3702   -0.5546    3.9419 H   0  0  0  0  0  0  0  0  0  0  0  0
   -5.1943   -0.3053    1.6733 H   0  0  0  0  0  0  0  0  0  0  0  0
   -4.8612   -1.4970    0.3980 H   0  0  0  0  0  0  0  0  0  0  0  0
   -4.7723   -0.4299   -2.1402 H   0  0  0  0  0  0  0  0  0  0  0  0
   -5.0704    1.3069   -2.2337 H   0  0  0  0  0  0  0  0  0  0  0  0
   -7.1928   -1.6236    1.0525 H   0  0  0  0  0  0  0  0  0  0  0  0
   -7.4255    0.1161    0.8400 H   0  0  0  0  0  0  0  0  0  0  0  0
   -7.3555    1.0743   -1.4469 H   0  0  0  0  0  0  0  0  0  0  0  0
   -7.0746   -0.0019   -2.8217 H   0  0  0  0  0  0  0  0  0  0  0  0
    0.4420    0.8495    1.7749 H   0  0  0  0  0  0  0  0  0  0  0  0
    1.1939   -2.8276   -0.3120 H   0  0  0  0  0  0  0  0  0  0  0  0
    1.4659   -1.1185    0.0392 H   0  0  0  0  0  0  0  0  0  0  0  0
    2.2244   -0.5190    2.2612 H   0  0  0  0  0  0  0  0  0  0  0  0
    2.4771   -1.8173    3.4288 H   0  0  0  0  0  0  0  0  0  0  0  0
   -2.8366   -0.5774    0.9420 H   0  0  0  0  0  0  0  0  0  0  0  0
   -4.2891    3.0377   -0.8566 H   0  0  0  0  0  0  0  0  0  0  0  0
   -8.9171   -1.4382   -2.1541 H   0  0  0  0  0  0  0  0  0  0  0  0
   -9.2709   -0.3819   -0.7696 H   0  0  0  0  0  0  0  0  0  0  0  0
   -8.9666   -2.1168   -0.5339 H   0  0  0  0  0  0  0  0  0  0  0  0
   -2.1648    4.1574   -0.3717 H   0  0  0  0  0  0  0  0  0  0  0  0
    1.0081    1.7325   -0.2734 H   0  0  0  0  0  0  0  0  0  0  0  0
    2.9248    0.6756   -1.3852 H   0  0  0  0  0  0  0  0  0  0  0  0
    4.5281   -0.1699   -3.2002 H   0  0  0  0  0  0  0  0  0  0  0  0
    6.2476   -0.0530   -2.9558 H   0  0  0  0  0  0  0  0  0  0  0  0
    4.6260    4.9678    1.3193 H   0  0  0  0  0  0  0  0  0  0  0  0
    6.7801    3.5882   -0.0563 H   0  0  0  0  0  0  0  0  0  0  0  0
    7.1385    1.6136   -1.5143 H   0  0  0  0  0  0  0  0  0  0  0  0
    3.7524   -2.3664   -2.8722 H   0  0  0  0  0  0  0  0  0  0  0  0
    6.8974   -0.8863   -0.3117 H   0  0  0  0  0  0  0  0  0  0  0  0
    5.3709   -4.8537    0.2247 H   0  0  0  0  0  0  0  0  0  0  0  0
  1 39  1  0  0  0  0
  2 40  1  0  0  0  0
  3 19  1  0  0  0  0
  3 20  1  0  0  0  0
  4 27  2  0  0  0  0
  5 14  1  0  0  0  0
  5 15  1  0  0  0  0
  5 18  1  0  0  0  0
  6 16  1  0  0  0  0
  6 17  1  0  0  0  0
  6 25  1  0  0  0  0
  7 11  1  0  0  0  0
  7 21  1  0  0  0  0
  7 55  1  0  0  0  0
  8 27  1  0  0  0  0
  8 28  1  0  0  0  0
  8 66  1  0  0  0  0
  9 10  1  0  0  0  0
  9 30  2  0  0  0  0
  9 70  1  0  0  0  0
 10 28  1  0  0  0  0
 11 12  1  0  0  0  0
 11 13  1  0  0  0  0
 11 42  1  0  0  0  0
 12 19  1  0  0  0  0
 12 43  1  0  0  0  0
 12 44  1  0  0  0  0
 13 20  1  0  0  0  0
 13 45  1  0  0  0  0
 13 46  1  0  0  0  0
 14 16  1  0  0  0  0
 14 47  1  0  0  0  0
 14 48  1  0  0  0  0
 15 17  1  0  0  0  0
 15 49  1  0  0  0  0
 15 50  1  0  0  0  0
 16 51  1  0  0  0  0
 16 52  1  0  0  0  0
 17 53  1  0  0  0  0
 17 54  1  0  0  0  0
 18 22  2  0  0  0  0
 18 24  1  0  0  0  0
 19 56  1  0  0  0  0
 19 57  1  0  0  0  0
 20 58  1  0  0  0  0
 20 59  1  0  0  0  0
 21 22  1  0  0  0  0
 21 23  2  0  0  0  0
 22 60  1  0  0  0  0
 23 26  1  0  0  0  0
 23 27  1  0  0  0  0
 24 26  2  0  0  0  0
 24 61  1  0  0  0  0
 25 62  1  0  0  0  0
 25 63  1  0  0  0  0
 25 64  1  0  0  0  0
 26 65  1  0  0  0  0
 28 29  2  0  0  0  0
 29 30  1  0  0  0  0
 29 31  1  0  0  0  0
 30 34  1  0  0  0  0
 31 32  2  0  0  0  0
 31 67  1  0  0  0  0
 32 33  1  0  0  0  0
 32 35  1  0  0  0  0
 33 36  1  0  0  0  0
 33 68  1  0  0  0  0
 33 69  1  0  0  0  0
 34 35  2  0  0  0  0
 34 71  1  0  0  0  0
 35 72  1  0  0  0  0
 36 37  2  0  0  0  0
 36 38  1  0  0  0  0
 37 40  1  0  0  0  0
 37 73  1  0  0  0  0
 38 39  2  0  0  0  0
 38 74  1  0  0  0  0
 39 41  1  0  0  0  0
 40 41  2  0  0  0  0
 41 75  1  0  0  0  0
M  END
