DB11560
 OpenBabel07062211533D

 38 41  0  0  1  0  0  0  0  0999 V2000
    0.5880    3.5969   -2.8257 Br  0  0  0  0  0  0  0  0  0  0  0  0
    2.7927   -0.7538   -0.0043 S   0  0  0  0  0  0  0  0  0  0  0  0
    6.0293   -2.1143    1.7021 O   0  0  0  0  0  0  0  0  0  0  0  0
    4.1599   -3.1882    0.9827 O   0  0  0  0  0  0  0  0  0  0  0  0
    1.4629    1.2463   -1.3125 N   0  0  0  0  0  0  0  0  0  0  0  0
    3.6414    1.4467   -1.3522 N   0  0  0  0  0  0  0  0  0  0  0  0
    3.0934    2.5106   -2.0409 N   0  0  0  0  0  0  0  0  0  0  0  0
   -3.7482   -0.8513   -0.5341 C   0  0  0  0  0  0  0  0  0  0  0  0
   -3.9198   -2.3415   -0.5734 C   0  0  0  0  0  0  0  0  0  0  0  0
   -4.1003   -1.5993    0.7182 C   0  0  0  0  0  0  0  0  0  0  0  0
   -2.3793   -0.2626   -0.6810 C   0  0  0  0  0  0  0  0  0  0  0  0
   -1.8435    0.6188    0.2721 C   0  0  0  0  0  0  0  0  0  0  0  0
   -1.6435   -0.6230   -1.8103 C   0  0  0  0  0  0  0  0  0  0  0  0
   -0.5432    1.1421    0.0770 C   0  0  0  0  0  0  0  0  0  0  0  0
    0.1833    0.7686   -1.0655 C   0  0  0  0  0  0  0  0  0  0  0  0
   -0.3647   -0.1083   -2.0021 C   0  0  0  0  0  0  0  0  0  0  0  0
   -2.5698    0.9923    1.4145 C   0  0  0  0  0  0  0  0  0  0  0  0
   -0.0074    2.0236    1.0301 C   0  0  0  0  0  0  0  0  0  0  0  0
   -2.0219    1.8693    2.3512 C   0  0  0  0  0  0  0  0  0  0  0  0
   -0.7431    2.3840    2.1593 C   0  0  0  0  0  0  0  0  0  0  0  0
    2.6486    0.7006   -0.9237 C   0  0  1  0  0  0  0  0  0  0  0  0
    1.7874    2.3725   -2.0062 C   0  0  0  0  0  0  0  0  0  0  0  0
    4.5982   -0.9530    0.1940 C   0  0  0  0  0  0  0  0  0  0  0  0
    4.8790   -2.1971    0.9868 C   0  0  0  0  0  0  0  0  0  0  0  0
   -4.5549   -0.2733   -0.9801 H   0  0  0  0  0  0  0  0  0  0  0  0
   -3.0492   -2.9806   -0.6603 H   0  0  0  0  0  0  0  0  0  0  0  0
   -4.8066   -2.7344   -1.0564 H   0  0  0  0  0  0  0  0  0  0  0  0
   -5.1089   -1.4970    1.1013 H   0  0  0  0  0  0  0  0  0  0  0  0
   -3.3541   -1.7847    1.4818 H   0  0  0  0  0  0  0  0  0  0  0  0
   -2.0562   -1.2998   -2.5540 H   0  0  0  0  0  0  0  0  0  0  0  0
    0.1926   -0.4003   -2.8895 H   0  0  0  0  0  0  0  0  0  0  0  0
   -3.5864    0.6633    1.6007 H   0  0  0  0  0  0  0  0  0  0  0  0
    0.9856    2.4532    0.9257 H   0  0  0  0  0  0  0  0  0  0  0  0
   -2.5976    2.1587    3.2257 H   0  0  0  0  0  0  0  0  0  0  0  0
   -0.3186    3.0685    2.8878 H   0  0  0  0  0  0  0  0  0  0  0  0
    4.9849   -0.0827    0.7325 H   0  0  0  0  0  0  0  0  0  0  0  0
    5.0855   -1.0356   -0.7813 H   0  0  0  0  0  0  0  0  0  0  0  0
    6.2045   -2.9353    2.2098 H   0  0  0  0  0  0  0  0  0  0  0  0
  1 22  1  0  0  0  0
  2 23  1  0  0  0  0
  3 24  1  0  0  0  0
  3 38  1  0  0  0  0
  4 24  2  0  0  0  0
  5 15  1  0  0  0  0
  5 21  1  0  0  0  0
  5 22  2  0  0  0  0
  6  7  2  0  0  0  0
  6 21  1  0  0  0  0
  7 22  1  0  0  0  0
  8  9  1  0  0  0  0
  8 10  1  0  0  0  0
  8 11  1  0  0  0  0
  8 25  1  0  0  0  0
  9 10  1  0  0  0  0
  9 26  1  0  0  0  0
  9 27  1  0  0  0  0
 10 28  1  0  0  0  0
 10 29  1  0  0  0  0
 11 12  2  0  0  0  0
 11 13  1  0  0  0  0
 12 14  1  0  0  0  0
 12 17  1  0  0  0  0
 13 16  2  0  0  0  0
 13 30  1  0  0  0  0
 14 15  2  0  0  0  0
 14 18  1  0  0  0  0
 15 16  1  0  0  0  0
 16 31  1  0  0  0  0
 17 19  2  0  0  0  0
 17 32  1  0  0  0  0
 18 20  2  0  0  0  0
 18 33  1  0  0  0  0
 19 20  1  0  0  0  0
 19 34  1  0  0  0  0
 20 35  1  0  0  0  0
 21  2  1  1  0  0  0
 23 24  1  0  0  0  0
 23 36  1  0  0  0  0
 23 37  1  0  0  0  0
M  END
