DB11164
 OpenBabel07062211533D

 44 43  0  0  1  0  0  0  0  0999 V2000
    5.4081   -1.9398   -1.5676 S   0  0  0  0  0  0  0  0  0  0  0  0
   -5.4021   -1.8670    1.6618 S   0  0  0  0  0  0  0  0  0  0  0  0
    4.3319    0.5831    0.4309 O   0  0  0  0  0  0  0  0  0  0  0  0
   -4.3332    0.5614   -0.4543 O   0  0  0  0  0  0  0  0  0  0  0  0
    2.7939    1.5226   -1.0075 O   0  0  0  0  0  0  0  0  0  0  0  0
   -2.7891    1.5648    0.9334 O   0  0  0  0  0  0  0  0  0  0  0  0
    1.5141   -0.9073   -1.0661 N   0  0  0  0  0  0  0  0  0  0  0  0
   -1.5188   -0.8605    1.0957 N   0  0  0  0  0  0  0  0  0  0  0  0
    0.7458   -0.8685    0.1675 C   0  0  0  0  0  0  0  0  0  0  0  0
   -0.7479   -0.8815   -0.1426 C   0  0  0  0  0  0  0  0  0  0  0  0
    2.9509   -0.8968   -0.7800 C   0  0  1  0  0  0  0  0  0  0  0  0
   -2.9477   -0.8624    0.8173 C   0  0  1  0  0  0  0  0  0  0  0  0
    3.7131   -1.4300   -1.9939 C   0  0  0  0  0  0  0  0  0  0  0  0
   -3.7052   -1.3391    2.0575 C   0  0  0  0  0  0  0  0  0  0  0  0
    3.3177    0.5473   -0.4837 C   0  0  0  0  0  0  0  0  0  0  0  0
   -3.3154    0.5670    0.4569 C   0  0  0  0  0  0  0  0  0  0  0  0
    4.7977    1.8890    0.7849 C   0  0  0  0  0  0  0  0  0  0  0  0
   -4.8002    1.8502   -0.8656 C   0  0  0  0  0  0  0  0  0  0  0  0
    5.9131    1.7564    1.7999 C   0  0  0  0  0  0  0  0  0  0  0  0
   -5.9198    1.6717   -1.8688 C   0  0  0  0  0  0  0  0  0  0  0  0
    0.9802    0.0345    0.7446 H   0  0  0  0  0  0  0  0  0  0  0  0
    0.9913   -1.7365    0.7933 H   0  0  0  0  0  0  0  0  0  0  0  0
   -0.9901   -1.7828   -0.7207 H   0  0  0  0  0  0  0  0  0  0  0  0
   -0.9894   -0.0110   -0.7651 H   0  0  0  0  0  0  0  0  0  0  0  0
    3.1517   -1.5262    0.0968 H   0  0  0  0  0  0  0  0  0  0  0  0
   -3.1552   -1.5303   -0.0290 H   0  0  0  0  0  0  0  0  0  0  0  0
    1.2682   -1.7554   -1.5767 H   0  0  0  0  0  0  0  0  0  0  0  0
   -1.2676   -1.6808    1.6472 H   0  0  0  0  0  0  0  0  0  0  0  0
    3.2242   -2.3199   -2.4056 H   0  0  0  0  0  0  0  0  0  0  0  0
    3.7699   -0.6816   -2.7923 H   0  0  0  0  0  0  0  0  0  0  0  0
   -3.2155   -2.2098    2.5076 H   0  0  0  0  0  0  0  0  0  0  0  0
   -3.7587   -0.5553    2.8210 H   0  0  0  0  0  0  0  0  0  0  0  0
    5.7584   -2.3448   -2.7971 H   0  0  0  0  0  0  0  0  0  0  0  0
   -5.7476   -2.2153    2.9099 H   0  0  0  0  0  0  0  0  0  0  0  0
    5.1709    2.3984   -0.1106 H   0  0  0  0  0  0  0  0  0  0  0  0
    3.9722    2.4669    1.2152 H   0  0  0  0  0  0  0  0  0  0  0  0
   -3.9764    2.4073   -1.3253 H   0  0  0  0  0  0  0  0  0  0  0  0
   -5.1695    2.4000    0.0073 H   0  0  0  0  0  0  0  0  0  0  0  0
    5.5598    1.2324    2.6942 H   0  0  0  0  0  0  0  0  0  0  0  0
    6.7382    1.1645    1.3901 H   0  0  0  0  0  0  0  0  0  0  0  0
    6.2941    2.7385    2.0930 H   0  0  0  0  0  0  0  0  0  0  0  0
   -5.5705    1.1073   -2.7397 H   0  0  0  0  0  0  0  0  0  0  0  0
   -6.7435    1.0997   -1.4290 H   0  0  0  0  0  0  0  0  0  0  0  0
   -6.3018    2.6397   -2.2050 H   0  0  0  0  0  0  0  0  0  0  0  0
  1 13  1  0  0  0  0
  1 33  1  0  0  0  0
  2 14  1  0  0  0  0
  2 34  1  0  0  0  0
  3 15  1  0  0  0  0
  3 17  1  0  0  0  0
  4 16  1  0  0  0  0
  4 18  1  0  0  0  0
  5 15  2  0  0  0  0
  6 16  2  0  0  0  0
  7  9  1  0  0  0  0
  7 11  1  0  0  0  0
  7 27  1  0  0  0  0
  8 10  1  0  0  0  0
  8 12  1  0  0  0  0
  8 28  1  0  0  0  0
  9 10  1  0  0  0  0
  9 21  1  0  0  0  0
  9 22  1  0  0  0  0
 10 23  1  0  0  0  0
 10 24  1  0  0  0  0
 11 13  1  0  0  0  0
 11 15  1  0  0  0  0
 11 25  1  1  0  0  0
 12 14  1  0  0  0  0
 12 16  1  0  0  0  0
 12 26  1  6  0  0  0
 13 29  1  0  0  0  0
 13 30  1  0  0  0  0
 14 31  1  0  0  0  0
 14 32  1  0  0  0  0
 17 19  1  0  0  0  0
 17 35  1  0  0  0  0
 17 36  1  0  0  0  0
 18 20  1  0  0  0  0
 18 37  1  0  0  0  0
 18 38  1  0  0  0  0
 19 39  1  0  0  0  0
 19 40  1  0  0  0  0
 19 41  1  0  0  0  0
 20 42  1  0  0  0  0
 20 43  1  0  0  0  0
 20 44  1  0  0  0  0
M  END
