DB11343
 OpenBabel07062211533D

  6  5  0  0  0  0  0  0  0  0999 V2000
    0.4034   -0.0060   -0.0000 Si  0  0  0  0  0  0  0  0  0  0  0  0
   -1.1586   -0.5675   -0.0024 O   0  0  0  0  0  0  0  0  0  0  0  0
    0.6445    0.8102    1.2168 H   0  0  0  0  0  0  0  0  0  0  0  0
    0.6412    0.8300   -1.2041 H   0  0  0  0  0  0  0  0  0  0  0  0
    1.3500   -1.1501   -0.0106 H   0  0  0  0  0  0  0  0  0  0  0  0
   -1.8805    0.0834    0.0003 H   0  0  0  0  0  0  0  0  0  0  0  0
  1  2  1  0  0  0  0
  1  3  1  0  0  0  0
  1  4  1  0  0  0  0
  1  5  1  0  0  0  0
  2  6  1  0  0  0  0
M  END
