DB11102
 OpenBabel07062211533D

 29 29  0  0  1  0  0  0  0  0999 V2000
   -3.8374    0.8409   -0.3656 O   0  0  0  0  0  0  0  0  0  0  0  0
   -3.0041    2.7983    0.3994 O   0  0  0  0  0  0  0  0  0  0  0  0
    4.6548   -0.7967    0.0016 O   0  0  0  0  0  0  0  0  0  0  0  0
   -1.1418   -1.3249    2.1312 O   0  0  0  0  0  0  0  0  0  0  0  0
   -1.6261   -0.5048    0.0065 N   0  0  0  0  0  0  0  0  0  0  0  0
   -1.5071    0.9007    0.3035 C   0  0  1  0  0  0  0  0  0  0  0  0
   -0.4375    1.5628   -0.5747 C   0  0  0  0  0  0  0  0  0  0  0  0
    0.9252    0.9312   -0.4204 C   0  0  0  0  0  0  0  0  0  0  0  0
    1.7940    1.4186    0.5424 C   0  0  0  0  0  0  0  0  0  0  0  0
    1.2813   -0.1240   -1.2447 C   0  0  0  0  0  0  0  0  0  0  0  0
   -2.8396    1.6137    0.1264 C   0  0  0  0  0  0  0  0  0  0  0  0
    3.0531    0.8353    0.6847 C   0  0  0  0  0  0  0  0  0  0  0  0
    2.5404   -0.7076   -1.1024 C   0  0  0  0  0  0  0  0  0  0  0  0
   -1.4321   -1.5011    0.9509 C   0  0  0  0  0  0  0  0  0  0  0  0
    3.4262   -0.2279   -0.1375 C   0  0  0  0  0  0  0  0  0  0  0  0
   -1.6424   -2.8786    0.3817 C   0  0  0  0  0  0  0  0  0  0  0  0
   -1.2403    1.0091    1.3619 H   0  0  0  0  0  0  0  0  0  0  0  0
   -0.7375    1.5192   -1.6312 H   0  0  0  0  0  0  0  0  0  0  0  0
   -0.3693    2.6347   -0.3443 H   0  0  0  0  0  0  0  0  0  0  0  0
   -1.9104   -0.7670   -0.9332 H   0  0  0  0  0  0  0  0  0  0  0  0
    1.5111    2.2444    1.1888 H   0  0  0  0  0  0  0  0  0  0  0  0
    0.6011   -0.5039   -2.0016 H   0  0  0  0  0  0  0  0  0  0  0  0
    3.7338    1.2179    1.4407 H   0  0  0  0  0  0  0  0  0  0  0  0
    2.8254   -1.5351   -1.7464 H   0  0  0  0  0  0  0  0  0  0  0  0
   -1.2614   -3.6279    1.0810 H   0  0  0  0  0  0  0  0  0  0  0  0
   -2.7106   -3.0463    0.2196 H   0  0  0  0  0  0  0  0  0  0  0  0
   -1.1086   -2.9829   -0.5672 H   0  0  0  0  0  0  0  0  0  0  0  0
   -4.6744    1.3426   -0.4659 H   0  0  0  0  0  0  0  0  0  0  0  0
    5.1342   -0.3406    0.7146 H   0  0  0  0  0  0  0  0  0  0  0  0
  1 11  1  0  0  0  0
  1 28  1  0  0  0  0
  2 11  2  0  0  0  0
  3 15  1  0  0  0  0
  3 29  1  0  0  0  0
  4 14  2  0  0  0  0
  5  6  1  0  0  0  0
  5 14  1  0  0  0  0
  5 20  1  0  0  0  0
  6  7  1  0  0  0  0
  6 11  1  0  0  0  0
  6 17  1  1  0  0  0
  7  8  1  0  0  0  0
  7 18  1  0  0  0  0
  7 19  1  0  0  0  0
  8  9  2  0  0  0  0
  8 10  1  0  0  0  0
  9 12  1  0  0  0  0
  9 21  1  0  0  0  0
 10 13  2  0  0  0  0
 10 22  1  0  0  0  0
 12 15  2  0  0  0  0
 12 23  1  0  0  0  0
 13 15  1  0  0  0  0
 13 24  1  0  0  0  0
 14 16  1  0  0  0  0
 16 25  1  0  0  0  0
 16 26  1  0  0  0  0
 16 27  1  0  0  0  0
M  END
