DB11100
 OpenBabel07062211533D

 17 17  0  0  1  0  0  0  0  0999 V2000
    0.5440    2.2732   -0.1869 O   0  0  0  0  0  0  0  0  0  0  0  0
    3.5394   -1.1923   -0.4296 O   0  0  0  0  0  0  0  0  0  0  0  0
   -2.2677    0.9679    1.2913 O   0  0  0  0  0  0  0  0  0  0  0  0
    1.3833   -1.0313    0.4640 N   0  0  0  0  0  0  0  0  0  0  0  0
   -0.8523   -0.3046   -0.0494 N   0  0  0  0  0  0  0  0  0  0  0  0
    2.3008    0.7775   -0.4558 N   0  0  0  0  0  0  0  0  0  0  0  0
   -3.1227   -0.2181   -0.4785 N   0  0  0  0  0  0  0  0  0  0  0  0
    0.3755   -0.0188    0.6222 C   0  0  2  0  0  0  0  0  0  0  0  0
    1.0509    1.1701   -0.0391 C   0  0  0  0  0  0  0  0  0  0  0  0
    2.5297   -0.5513   -0.1727 C   0  0  0  0  0  0  0  0  0  0  0  0
   -2.0915    0.2128    0.3367 C   0  0  0  0  0  0  0  0  0  0  0  0
    0.2202    0.1790    1.6868 H   0  0  0  0  0  0  0  0  0  0  0  0
    1.2819   -1.9868    0.7909 H   0  0  0  0  0  0  0  0  0  0  0  0
   -0.8171   -0.8964   -0.8734 H   0  0  0  0  0  0  0  0  0  0  0  0
    2.9622    1.3827   -0.9285 H   0  0  0  0  0  0  0  0  0  0  0  0
   -2.9573   -0.8419   -1.2612 H   0  0  0  0  0  0  0  0  0  0  0  0
   -4.0793    0.0780   -0.3166 H   0  0  0  0  0  0  0  0  0  0  0  0
  1  9  2  0  0  0  0
  2 10  2  0  0  0  0
  3 11  2  0  0  0  0
  4  8  1  0  0  0  0
  4 10  1  0  0  0  0
  4 13  1  0  0  0  0
  5  8  1  0  0  0  0
  5 11  1  0  0  0  0
  5 14  1  0  0  0  0
  6  9  1  0  0  0  0
  6 10  1  0  0  0  0
  6 15  1  0  0  0  0
  7 11  1  0  0  0  0
  7 16  1  0  0  0  0
  7 17  1  0  0  0  0
  8  9  1  0  0  0  0
  8 12  1  1  0  0  0
M  END
