DB11732
 OpenBabel07062211533D

 45 47  0  0  0  0  0  0  0  0999 V2000
   -2.6559   -1.5567    0.9931 F   0  0  0  0  0  0  0  0  0  0  0  0
   -6.3353    0.6949   -0.9956 F   0  0  0  0  0  0  0  0  0  0  0  0
   -6.5410   -3.9675   -0.2209 F   0  0  0  0  0  0  0  0  0  0  0  0
    3.0473    2.9821   -0.0259 O   0  0  0  0  0  0  0  0  0  0  0  0
   -4.4009    1.8870    0.2289 O   0  0  0  0  0  0  0  0  0  0  0  0
    4.4955   -1.4566    0.2007 N   0  0  0  0  0  0  0  0  0  0  0  0
   -0.1009    1.4524   -0.0387 N   0  0  0  0  0  0  0  0  0  0  0  0
   -2.3581    0.7487   -0.0044 N   0  0  0  0  0  0  0  0  0  0  0  0
    2.5460    0.6726   -0.2628 C   0  0  0  0  0  0  0  0  0  0  0  0
    2.7199    0.0109    1.1032 C   0  0  0  0  0  0  0  0  0  0  0  0
    3.8319    0.5536   -1.0786 C   0  0  0  0  0  0  0  0  0  0  0  0
    3.2401   -1.4208    0.9639 C   0  0  0  0  0  0  0  0  0  0  0  0
    4.3139   -0.8967   -1.1456 C   0  0  0  0  0  0  0  0  0  0  0  0
    2.1802    2.1129   -0.0798 C   0  0  0  0  0  0  0  0  0  0  0  0
    5.0068   -2.8249    0.1211 C   0  0  0  0  0  0  0  0  0  0  0  0
    0.7421    2.4861    0.0368 C   0  0  0  0  0  0  0  0  0  0  0  0
    0.4125    3.8022    0.2038 C   0  0  0  0  0  0  0  0  0  0  0  0
   -1.4095    1.7758    0.0645 C   0  0  0  0  0  0  0  0  0  0  0  0
   -0.9430    4.0953    0.3060 C   0  0  0  0  0  0  0  0  0  0  0  0
   -1.8778    3.0685    0.2362 C   0  0  0  0  0  0  0  0  0  0  0  0
   -3.7495    0.8588    0.0786 C   0  0  0  0  0  0  0  0  0  0  0  0
   -4.4928   -0.4261   -0.0009 C   0  0  0  0  0  0  0  0  0  0  0  0
   -3.8897   -1.5739    0.4690 C   0  0  0  0  0  0  0  0  0  0  0  0
   -5.7612   -0.4287   -0.5424 C   0  0  0  0  0  0  0  0  0  0  0  0
   -4.5870   -2.7796    0.3941 C   0  0  0  0  0  0  0  0  0  0  0  0
   -6.4584   -1.6343   -0.6173 C   0  0  0  0  0  0  0  0  0  0  0  0
   -5.8714   -2.8099   -0.1490 C   0  0  0  0  0  0  0  0  0  0  0  0
    1.7631    0.1527   -0.8279 H   0  0  0  0  0  0  0  0  0  0  0  0
    1.7665   -0.0014    1.6452 H   0  0  0  0  0  0  0  0  0  0  0  0
    3.4163    0.5945    1.7206 H   0  0  0  0  0  0  0  0  0  0  0  0
    4.6307    1.1675   -0.6412 H   0  0  0  0  0  0  0  0  0  0  0  0
    3.6696    0.9351   -2.0943 H   0  0  0  0  0  0  0  0  0  0  0  0
    3.4066   -1.8225    1.9709 H   0  0  0  0  0  0  0  0  0  0  0  0
    2.4739   -2.0459    0.4865 H   0  0  0  0  0  0  0  0  0  0  0  0
    3.5995   -1.4959   -1.7257 H   0  0  0  0  0  0  0  0  0  0  0  0
    5.2677   -0.9145   -1.6869 H   0  0  0  0  0  0  0  0  0  0  0  0
    5.1898   -3.2262    1.1240 H   0  0  0  0  0  0  0  0  0  0  0  0
    5.9677   -2.8464   -0.4049 H   0  0  0  0  0  0  0  0  0  0  0  0
    4.3138   -3.4966   -0.3984 H   0  0  0  0  0  0  0  0  0  0  0  0
    1.1440    4.5997    0.2576 H   0  0  0  0  0  0  0  0  0  0  0  0
   -1.2686    5.1228    0.4399 H   0  0  0  0  0  0  0  0  0  0  0  0
   -2.9070    3.3746    0.3235 H   0  0  0  0  0  0  0  0  0  0  0  0
   -1.9489   -0.1710   -0.1456 H   0  0  0  0  0  0  0  0  0  0  0  0
   -4.1300   -3.6947    0.7586 H   0  0  0  0  0  0  0  0  0  0  0  0
   -7.4584   -1.6581   -1.0400 H   0  0  0  0  0  0  0  0  0  0  0  0
  1 23  1  0  0  0  0
  2 24  1  0  0  0  0
  3 27  1  0  0  0  0
  4 14  2  0  0  0  0
  5 21  2  0  0  0  0
  6 12  1  0  0  0  0
  6 13  1  0  0  0  0
  6 15  1  0  0  0  0
  7 16  2  0  0  0  0
  7 18  1  0  0  0  0
  8 18  1  0  0  0  0
  8 21  1  0  0  0  0
  8 43  1  0  0  0  0
  9 10  1  0  0  0  0
  9 11  1  0  0  0  0
  9 14  1  0  0  0  0
  9 28  1  0  0  0  0
 10 12  1  0  0  0  0
 10 29  1  0  0  0  0
 10 30  1  0  0  0  0
 11 13  1  0  0  0  0
 11 31  1  0  0  0  0
 11 32  1  0  0  0  0
 12 33  1  0  0  0  0
 12 34  1  0  0  0  0
 13 35  1  0  0  0  0
 13 36  1  0  0  0  0
 14 16  1  0  0  0  0
 15 37  1  0  0  0  0
 15 38  1  0  0  0  0
 15 39  1  0  0  0  0
 16 17  1  0  0  0  0
 17 19  2  0  0  0  0
 17 40  1  0  0  0  0
 18 20  2  0  0  0  0
 19 20  1  0  0  0  0
 19 41  1  0  0  0  0
 20 42  1  0  0  0  0
 21 22  1  0  0  0  0
 22 23  2  0  0  0  0
 22 24  1  0  0  0  0
 23 25  1  0  0  0  0
 24 26  2  0  0  0  0
 25 27  2  0  0  0  0
 25 44  1  0  0  0  0
 26 27  1  0  0  0  0
 26 45  1  0  0  0  0
M  END
