DB11921
 OpenBabel07062211533D

 63 67  0  0  1  0  0  0  0  0999 V2000
   -2.0718    3.3702   -0.0573 O   0  0  0  0  0  0  0  0  0  0  0  0
    0.8539   -2.3996    0.8910 O   0  0  0  0  0  0  0  0  0  0  0  0
   -4.1351    1.0691    1.5648 O   0  0  0  0  0  0  0  0  0  0  0  0
   -5.2127   -0.9679    0.0516 O   0  0  0  0  0  0  0  0  0  0  0  0
    6.5539   -0.7217   -2.8260 O   0  0  0  0  0  0  0  0  0  0  0  0
   -5.0039   -3.0762   -0.8698 O   0  0  0  0  0  0  0  0  0  0  0  0
   -2.2893    1.3577   -1.1271 N   0  0  0  0  0  0  0  0  0  0  0  0
   -0.8708    0.1692    0.5926 C   0  0  1  0  0  0  0  0  0  0  0  0
    0.2585    1.2173    0.4620 C   0  0  2  0  0  0  0  0  0  0  0  0
    1.6531    0.6575    0.7775 C   0  0  1  0  0  0  0  0  0  0  0  0
   -2.1103    1.0568    0.3053 C   0  0  1  0  0  0  0  0  0  0  0  0
    1.9655   -0.5073   -0.2282 C   0  0  2  0  0  0  0  0  0  0  0  0
   -0.2691    2.4059    1.2680 C   0  0  0  0  0  0  0  0  0  0  0  0
   -0.5863   -0.9561   -0.4208 C   0  0  0  0  0  0  0  0  0  0  0  0
   -1.7796    2.4123    0.9546 C   0  0  1  0  0  0  0  0  0  0  0  0
    0.8226   -1.5723   -0.2635 C   0  0  2  0  0  0  0  0  0  0  0  0
    3.4320   -1.0698   -0.0518 C   0  0  1  0  0  0  0  0  0  0  0  0
    2.7122    1.7709    0.6861 C   0  0  0  0  0  0  0  0  0  0  0  0
   -0.9941   -0.4148    2.0297 C   0  0  0  0  0  0  0  0  0  0  0  0
    4.1286    1.2380    0.8611 C   0  0  0  0  0  0  0  0  0  0  0  0
    4.3907    0.1240   -0.1196 C   0  0  0  0  0  0  0  0  0  0  0  0
   -3.4225    0.4805    0.7532 C   0  0  0  0  0  0  0  0  0  0  0  0
    3.6683   -1.8007    1.2892 C   0  0  0  0  0  0  0  0  0  0  0  0
    3.7368   -2.0822   -1.1466 C   0  0  0  0  0  0  0  0  0  0  0  0
   -2.2830    2.6502   -1.1798 C   0  0  0  0  0  0  0  0  0  0  0  0
    5.3873    0.2311   -1.0124 C   0  0  0  0  0  0  0  0  0  0  0  0
   -3.8089   -0.8538    0.1516 C   0  0  0  0  0  0  0  0  0  0  0  0
    4.7261   -1.9807   -2.0394 C   0  0  0  0  0  0  0  0  0  0  0  0
   -2.4706    3.4551   -2.4119 C   0  0  0  0  0  0  0  0  0  0  0  0
    5.6318   -0.8178   -2.0234 C   0  0  0  0  0  0  0  0  0  0  0  0
   -5.6882   -2.1391   -0.4812 C   0  0  0  0  0  0  0  0  0  0  0  0
   -7.1862   -2.1189   -0.5248 C   0  0  0  0  0  0  0  0  0  0  0  0
    0.3022    1.5556   -0.5861 H   0  0  0  0  0  0  0  0  0  0  0  0
    1.6758    0.2738    1.8020 H   0  0  0  0  0  0  0  0  0  0  0  0
    1.9397   -0.0448   -1.2301 H   0  0  0  0  0  0  0  0  0  0  0  0
   -0.1013    2.2445    2.3385 H   0  0  0  0  0  0  0  0  0  0  0  0
    0.2173    3.3428    0.9786 H   0  0  0  0  0  0  0  0  0  0  0  0
   -0.6642   -0.5696   -1.4443 H   0  0  0  0  0  0  0  0  0  0  0  0
   -1.3267   -1.7559   -0.3235 H   0  0  0  0  0  0  0  0  0  0  0  0
   -2.3532    2.6631    1.8517 H   0  0  0  0  0  0  0  0  0  0  0  0
    0.9804   -2.2334   -1.1229 H   0  0  0  0  0  0  0  0  0  0  0  0
    2.5256    2.5293    1.4555 H   0  0  0  0  0  0  0  0  0  0  0  0
    2.6337    2.2799   -0.2838 H   0  0  0  0  0  0  0  0  0  0  0  0
   -1.3918    0.3157    2.7426 H   0  0  0  0  0  0  0  0  0  0  0  0
   -1.6605   -1.2820    2.0555 H   0  0  0  0  0  0  0  0  0  0  0  0
   -0.0393   -0.7478    2.4407 H   0  0  0  0  0  0  0  0  0  0  0  0
    4.2732    0.8754    1.8852 H   0  0  0  0  0  0  0  0  0  0  0  0
    4.8371    2.0645    0.7272 H   0  0  0  0  0  0  0  0  0  0  0  0
    3.2788   -1.2438    2.1467 H   0  0  0  0  0  0  0  0  0  0  0  0
    3.2088   -2.7949    1.3092 H   0  0  0  0  0  0  0  0  0  0  0  0
    4.7401   -1.9583    1.4692 H   0  0  0  0  0  0  0  0  0  0  0  0
    3.1182   -2.9759   -1.1921 H   0  0  0  0  0  0  0  0  0  0  0  0
    0.1607   -3.0741    0.7923 H   0  0  0  0  0  0  0  0  0  0  0  0
    6.0411    1.0964   -1.0382 H   0  0  0  0  0  0  0  0  0  0  0  0
   -3.4234   -1.6535    0.7893 H   0  0  0  0  0  0  0  0  0  0  0  0
   -3.3934   -0.9395   -0.8563 H   0  0  0  0  0  0  0  0  0  0  0  0
    4.8940   -2.7493   -2.7849 H   0  0  0  0  0  0  0  0  0  0  0  0
   -2.7203    2.8033   -3.2534 H   0  0  0  0  0  0  0  0  0  0  0  0
   -1.5467    3.9930   -2.6396 H   0  0  0  0  0  0  0  0  0  0  0  0
   -3.2843    4.1698   -2.2641 H   0  0  0  0  0  0  0  0  0  0  0  0
   -7.5268   -1.2938   -1.1551 H   0  0  0  0  0  0  0  0  0  0  0  0
   -7.5843   -2.0199    0.4881 H   0  0  0  0  0  0  0  0  0  0  0  0
   -7.5496   -3.0578   -0.9524 H   0  0  0  0  0  0  0  0  0  0  0  0
  1 15  1  0  0  0  0
  1 25  1  0  0  0  0
  2 16  1  0  0  0  0
  2 53  1  0  0  0  0
  3 22  2  0  0  0  0
  4 27  1  0  0  0  0
  4 31  1  0  0  0  0
  5 30  2  0  0  0  0
  6 31  2  0  0  0  0
  7 11  1  0  0  0  0
  7 25  2  0  0  0  0
  8  9  1  6  0  0  0
  8 14  1  0  0  0  0
  8 19  1  0  0  0  0
  9 10  1  1  0  0  0
  9 13  1  0  0  0  0
  9 33  1  0  0  0  0
 10 12  1  6  0  0  0
 10 18  1  0  0  0  0
 10 34  1  0  0  0  0
 11  8  1  1  0  0  0
 11 22  1  0  0  0  0
 12 16  1  1  0  0  0
 12 35  1  0  0  0  0
 13 15  1  0  0  0  0
 13 36  1  0  0  0  0
 13 37  1  0  0  0  0
 14 16  1  0  0  0  0
 14 38  1  0  0  0  0
 14 39  1  0  0  0  0
 15 11  1  6  0  0  0
 15 40  1  0  0  0  0
 16 41  1  6  0  0  0
 17 12  1  6  0  0  0
 17 21  1  0  0  0  0
 17 23  1  0  0  0  0
 17 24  1  0  0  0  0
 18 20  1  0  0  0  0
 18 42  1  0  0  0  0
 18 43  1  0  0  0  0
 19 44  1  0  0  0  0
 19 45  1  0  0  0  0
 19 46  1  0  0  0  0
 20 21  1  0  0  0  0
 20 47  1  0  0  0  0
 20 48  1  0  0  0  0
 21 26  2  0  0  0  0
 22 27  1  0  0  0  0
 23 49  1  0  0  0  0
 23 50  1  0  0  0  0
 23 51  1  0  0  0  0
 24 28  2  0  0  0  0
 24 52  1  0  0  0  0
 25 29  1  0  0  0  0
 26 30  1  0  0  0  0
 26 54  1  0  0  0  0
 27 55  1  0  0  0  0
 27 56  1  0  0  0  0
 28 30  1  0  0  0  0
 28 57  1  0  0  0  0
 29 58  1  0  0  0  0
 29 59  1  0  0  0  0
 29 60  1  0  0  0  0
 31 32  1  0  0  0  0
 32 61  1  0  0  0  0
 32 62  1  0  0  0  0
 32 63  1  0  0  0  0
M  END
