DB11278
 OpenBabel07062211533D

 30 30  0  0  1  0  0  0  0  0999 V2000
   -0.0430    1.6746   -1.1944 O   0  0  0  0  0  0  0  0  0  0  0  0
   -2.3746    0.3370   -0.1163 N   0  0  0  0  0  0  0  0  0  0  0  0
   -1.0245   -0.2354   -0.0387 C   0  0  2  0  0  0  0  0  0  0  0  0
    0.0188    0.9037    0.0088 C   0  0  1  0  0  0  0  0  0  0  0  0
   -0.8330   -1.1582   -1.2438 C   0  0  0  0  0  0  0  0  0  0  0  0
    1.4456    0.4162    0.1424 C   0  0  0  0  0  0  0  0  0  0  0  0
   -2.6106    1.2296    1.0152 C   0  0  0  0  0  0  0  0  0  0  0  0
   -3.3736   -0.7277   -0.1507 C   0  0  0  0  0  0  0  0  0  0  0  0
    2.4700    1.1685   -0.4052 C   0  0  0  0  0  0  0  0  0  0  0  0
    1.6942   -0.7707    0.8091 C   0  0  0  0  0  0  0  0  0  0  0  0
    3.7849    0.7194   -0.2821 C   0  0  0  0  0  0  0  0  0  0  0  0
    3.0091   -1.2197    0.9321 C   0  0  0  0  0  0  0  0  0  0  0  0
    4.0545   -0.4747    0.3866 C   0  0  0  0  0  0  0  0  0  0  0  0
   -0.9669   -0.8371    0.8757 H   0  0  0  0  0  0  0  0  0  0  0  0
   -0.1319    1.5810    0.8547 H   0  0  0  0  0  0  0  0  0  0  0  0
   -1.3681   -2.1063   -1.1186 H   0  0  0  0  0  0  0  0  0  0  0  0
   -1.1746   -0.6954   -2.1776 H   0  0  0  0  0  0  0  0  0  0  0  0
    0.2144   -1.4346   -1.3969 H   0  0  0  0  0  0  0  0  0  0  0  0
   -3.6705    1.5084    1.0684 H   0  0  0  0  0  0  0  0  0  0  0  0
   -2.0882    2.1845    0.9031 H   0  0  0  0  0  0  0  0  0  0  0  0
   -2.3455    0.7756    1.9771 H   0  0  0  0  0  0  0  0  0  0  0  0
   -4.3838   -0.3050   -0.0842 H   0  0  0  0  0  0  0  0  0  0  0  0
   -3.2609   -1.4388    0.6761 H   0  0  0  0  0  0  0  0  0  0  0  0
   -3.3678   -1.2736   -1.0993 H   0  0  0  0  0  0  0  0  0  0  0  0
    2.2953    2.1114   -0.9140 H   0  0  0  0  0  0  0  0  0  0  0  0
    0.9253   -1.3732    1.2757 H   0  0  0  0  0  0  0  0  0  0  0  0
    0.2067    1.1079   -1.9438 H   0  0  0  0  0  0  0  0  0  0  0  0
    4.5997    1.3018   -0.7025 H   0  0  0  0  0  0  0  0  0  0  0  0
    3.2204   -2.1460    1.4585 H   0  0  0  0  0  0  0  0  0  0  0  0
    5.0785   -0.8230    0.4846 H   0  0  0  0  0  0  0  0  0  0  0  0
  1  4  1  0  0  0  0
  1 27  1  0  0  0  0
  2  3  1  0  0  0  0
  2  7  1  0  0  0  0
  2  8  1  0  0  0  0
  3  4  1  0  0  0  0
  3  5  1  0  0  0  0
  3 14  1  1  0  0  0
  4  6  1  0  0  0  0
  4 15  1  1  0  0  0
  5 16  1  0  0  0  0
  5 17  1  0  0  0  0
  5 18  1  0  0  0  0
  6  9  2  0  0  0  0
  6 10  1  0  0  0  0
  7 19  1  0  0  0  0
  7 20  1  0  0  0  0
  7 21  1  0  0  0  0
  8 22  1  0  0  0  0
  8 23  1  0  0  0  0
  8 24  1  0  0  0  0
  9 11  1  0  0  0  0
  9 25  1  0  0  0  0
 10 12  2  0  0  0  0
 10 26  1  0  0  0  0
 11 13  2  0  0  0  0
 11 28  1  0  0  0  0
 12 13  1  0  0  0  0
 12 29  1  0  0  0  0
 13 30  1  0  0  0  0
M  END
