DB11359
 OpenBabel07062211533D

 17 17  0  0  0  0  0  0  0  0999 V2000
   -1.5831    0.8096   -0.0004 O   0  0  0  0  0  0  0  0  0  0  0  0
    0.5606    2.5791    0.0004 O   0  0  0  0  0  0  0  0  0  0  0  0
   -0.3023    0.3458   -0.0002 C   0  0  0  0  0  0  0  0  0  0  0  0
    0.7735    1.2338   -0.0004 C   0  0  0  0  0  0  0  0  0  0  0  0
   -0.0712   -1.0298    0.0001 C   0  0  0  0  0  0  0  0  0  0  0  0
    2.0804    0.7459   -0.0004 C   0  0  0  0  0  0  0  0  0  0  0  0
    1.2356   -1.5176    0.0001 C   0  0  0  0  0  0  0  0  0  0  0  0
    2.3113   -0.6297   -0.0001 C   0  0  0  0  0  0  0  0  0  0  0  0
   -2.6252   -0.1641   -0.0001 C   0  0  0  0  0  0  0  0  0  0  0  0
   -0.8566   -1.7778    0.0002 H   0  0  0  0  0  0  0  0  0  0  0  0
    2.9229    1.4322   -0.0003 H   0  0  0  0  0  0  0  0  0  0  0  0
    1.4169   -2.5885    0.0004 H   0  0  0  0  0  0  0  0  0  0  0  0
    3.3288   -1.0095    0.0000 H   0  0  0  0  0  0  0  0  0  0  0  0
   -2.6083   -0.7730    0.9102 H   0  0  0  0  0  0  0  0  0  0  0  0
   -2.6085   -0.7736   -0.9100 H   0  0  0  0  0  0  0  0  0  0  0  0
   -3.5752    0.3806   -0.0002 H   0  0  0  0  0  0  0  0  0  0  0  0
   -0.3996    2.7367    0.0006 H   0  0  0  0  0  0  0  0  0  0  0  0
  1  3  1  0  0  0  0
  1  9  1  0  0  0  0
  2  4  1  0  0  0  0
  2 17  1  0  0  0  0
  3  4  2  0  0  0  0
  3  5  1  0  0  0  0
  4  6  1  0  0  0  0
  5  7  2  0  0  0  0
  5 10  1  0  0  0  0
  6  8  2  0  0  0  0
  6 11  1  0  0  0  0
  7  8  1  0  0  0  0
  7 12  1  0  0  0  0
  8 13  1  0  0  0  0
  9 14  1  0  0  0  0
  9 15  1  0  0  0  0
  9 16  1  0  0  0  0
M  END
