DB11979
 OpenBabel07062211533D

 75 78  0  0  1  0  0  0  0  0999 V2000
   -3.2408   -1.2516    1.4412 F   0  0  0  0  0  0  0  0  0  0  0  0
   -0.5179    2.0584    1.8979 F   0  0  0  0  0  0  0  0  0  0  0  0
    0.8920    7.2267   -0.8515 F   0  0  0  0  0  0  0  0  0  0  0  0
    0.1571    5.5279   -1.9819 F   0  0  0  0  0  0  0  0  0  0  0  0
   -1.1754    6.5897   -0.6304 F   0  0  0  0  0  0  0  0  0  0  0  0
    0.9125    2.3540   -1.1616 O   0  0  0  0  0  0  0  0  0  0  0  0
   -1.3147   -1.6851   -1.6749 O   0  0  0  0  0  0  0  0  0  0  0  0
   -5.5197   -2.7634    1.6042 O   0  0  0  0  0  0  0  0  0  0  0  0
    8.9307   -2.2869    0.7687 O   0  0  0  0  0  0  0  0  0  0  0  0
    8.0960   -2.7727   -1.2872 O   0  0  0  0  0  0  0  0  0  0  0  0
   -0.1629    0.3235   -1.4296 N   0  0  0  0  0  0  0  0  0  0  0  0
   -1.3480    2.2293   -0.6353 N   0  0  0  0  0  0  0  0  0  0  0  0
    3.2018   -1.3450   -1.2407 N   0  0  0  0  0  0  0  0  0  0  0  0
    1.9033   -0.8765   -0.7419 C   0  0  1  0  0  0  0  0  0  0  0  0
    1.0805   -0.2835   -1.8964 C   0  0  0  0  0  0  0  0  0  0  0  0
   -2.5231    1.4737   -0.5437 C   0  0  0  0  0  0  0  0  0  0  0  0
   -0.1263    1.6891   -1.0790 C   0  0  0  0  0  0  0  0  0  0  0  0
   -2.5391    0.1671   -0.8836 C   0  0  0  0  0  0  0  0  0  0  0  0
    1.1794   -1.9864    0.0006 C   0  0  0  0  0  0  0  0  0  0  0  0
   -1.2906   -0.4934   -1.3664 C   0  0  0  0  0  0  0  0  0  0  0  0
   -1.3918    3.6438   -0.2524 C   0  0  0  0  0  0  0  0  0  0  0  0
    4.1881   -1.3430   -0.1744 C   0  0  0  0  0  0  0  0  0  0  0  0
    5.5395   -1.8262   -0.7026 C   0  0  0  0  0  0  0  0  0  0  0  0
   -3.7536   -0.6393   -0.7958 C   0  0  0  0  0  0  0  0  0  0  0  0
   -0.2227    4.0298    0.6069 C   0  0  0  0  0  0  0  0  0  0  0  0
   -3.7667    2.1872   -0.0486 C   0  0  0  0  0  0  0  0  0  0  0  0
    0.3728   -1.6813    1.0971 C   0  0  0  0  0  0  0  0  0  0  0  0
    1.3204   -3.3107   -0.4143 C   0  0  0  0  0  0  0  0  0  0  0  0
    0.4837    5.2082    0.3659 C   0  0  0  0  0  0  0  0  0  0  0  0
    6.6165   -1.8408    0.3779 C   0  0  0  0  0  0  0  0  0  0  0  0
   -4.0586   -1.3252    0.3800 C   0  0  0  0  0  0  0  0  0  0  0  0
   -4.6104   -0.7213   -1.8933 C   0  0  0  0  0  0  0  0  0  0  0  0
    0.1542    3.1931    1.6577 C   0  0  0  0  0  0  0  0  0  0  0  0
   -0.2922   -2.7004    1.7789 C   0  0  0  0  0  0  0  0  0  0  0  0
    0.6553   -4.3298    0.2674 C   0  0  0  0  0  0  0  0  0  0  0  0
   -0.1511   -4.0245    1.3640 C   0  0  0  0  0  0  0  0  0  0  0  0
    1.5671    5.5499    1.1752 C   0  0  0  0  0  0  0  0  0  0  0  0
   -5.2202   -2.0935    0.4579 C   0  0  0  0  0  0  0  0  0  0  0  0
    0.0994    6.1194   -0.7528 C   0  0  0  0  0  0  0  0  0  0  0  0
    1.2376    3.5350    2.4669 C   0  0  0  0  0  0  0  0  0  0  0  0
   -5.7720   -1.4894   -1.8155 C   0  0  0  0  0  0  0  0  0  0  0  0
    1.9441    4.7133    2.2257 C   0  0  0  0  0  0  0  0  0  0  0  0
   -6.0769   -2.1756   -0.6398 C   0  0  0  0  0  0  0  0  0  0  0  0
    7.9374   -2.3406   -0.1524 C   0  0  0  0  0  0  0  0  0  0  0  0
   -6.7234   -3.5293    1.6132 C   0  0  0  0  0  0  0  0  0  0  0  0
    2.0799   -0.0542   -0.0329 H   0  0  0  0  0  0  0  0  0  0  0  0
    0.8440   -1.0631   -2.6323 H   0  0  0  0  0  0  0  0  0  0  0  0
    1.6686    0.4764   -2.4260 H   0  0  0  0  0  0  0  0  0  0  0  0
    3.5263   -0.7327   -1.9891 H   0  0  0  0  0  0  0  0  0  0  0  0
   -2.2771    3.9338    0.3152 H   0  0  0  0  0  0  0  0  0  0  0  0
   -1.4303    4.1852   -1.1999 H   0  0  0  0  0  0  0  0  0  0  0  0
    4.3118   -0.3316    0.2328 H   0  0  0  0  0  0  0  0  0  0  0  0
    3.8815   -1.9981    0.6494 H   0  0  0  0  0  0  0  0  0  0  0  0
    5.8659   -1.1824   -1.5302 H   0  0  0  0  0  0  0  0  0  0  0  0
    5.4272   -2.8359   -1.1198 H   0  0  0  0  0  0  0  0  0  0  0  0
   -3.9894    3.0613   -0.6707 H   0  0  0  0  0  0  0  0  0  0  0  0
   -4.6726    1.5758   -0.0788 H   0  0  0  0  0  0  0  0  0  0  0  0
   -3.6478    2.4895    0.9977 H   0  0  0  0  0  0  0  0  0  0  0  0
    0.2563   -0.6550    1.4347 H   0  0  0  0  0  0  0  0  0  0  0  0
    1.9251   -3.5795   -1.2758 H   0  0  0  0  0  0  0  0  0  0  0  0
    6.7652   -0.8268    0.7650 H   0  0  0  0  0  0  0  0  0  0  0  0
    6.3121   -2.4959    1.2014 H   0  0  0  0  0  0  0  0  0  0  0  0
   -4.3867   -0.1928   -2.8171 H   0  0  0  0  0  0  0  0  0  0  0  0
   -0.9203   -2.4626    2.6325 H   0  0  0  0  0  0  0  0  0  0  0  0
    0.7610   -5.3605   -0.0582 H   0  0  0  0  0  0  0  0  0  0  0  0
   -0.6703   -4.8177    1.8938 H   0  0  0  0  0  0  0  0  0  0  0  0
    2.1315    6.4624    1.0052 H   0  0  0  0  0  0  0  0  0  0  0  0
    1.5313    2.8830    3.2842 H   0  0  0  0  0  0  0  0  0  0  0  0
   -6.4385   -1.5527   -2.6708 H   0  0  0  0  0  0  0  0  0  0  0  0
    2.7879    4.9789    2.8558 H   0  0  0  0  0  0  0  0  0  0  0  0
   -6.9949   -2.7530   -0.6485 H   0  0  0  0  0  0  0  0  0  0  0  0
    9.7793   -2.6261    0.4124 H   0  0  0  0  0  0  0  0  0  0  0  0
   -7.6062   -2.8933    1.4872 H   0  0  0  0  0  0  0  0  0  0  0  0
   -6.6888   -4.3421    0.8798 H   0  0  0  0  0  0  0  0  0  0  0  0
   -6.8031   -3.9940    2.6014 H   0  0  0  0  0  0  0  0  0  0  0  0
  1 31  1  0  0  0  0
  2 33  1  0  0  0  0
  3 39  1  0  0  0  0
  4 39  1  0  0  0  0
  5 39  1  0  0  0  0
  6 17  2  0  0  0  0
  7 20  2  0  0  0  0
  8 38  1  0  0  0  0
  8 45  1  0  0  0  0
  9 44  1  0  0  0  0
  9 72  1  0  0  0  0
 10 44  2  0  0  0  0
 11 15  1  0  0  0  0
 11 17  1  0  0  0  0
 11 20  1  0  0  0  0
 12 16  1  0  0  0  0
 12 17  1  0  0  0  0
 12 21  1  0  0  0  0
 13 14  1  0  0  0  0
 13 22  1  0  0  0  0
 13 49  1  0  0  0  0
 14 15  1  0  0  0  0
 14 19  1  0  0  0  0
 14 46  1  1  0  0  0
 15 47  1  0  0  0  0
 15 48  1  0  0  0  0
 16 18  2  0  0  0  0
 16 26  1  0  0  0  0
 18 20  1  0  0  0  0
 18 24  1  0  0  0  0
 19 27  2  0  0  0  0
 19 28  1  0  0  0  0
 21 25  1  0  0  0  0
 21 50  1  0  0  0  0
 21 51  1  0  0  0  0
 22 23  1  0  0  0  0
 22 52  1  0  0  0  0
 22 53  1  0  0  0  0
 23 30  1  0  0  0  0
 23 54  1  0  0  0  0
 23 55  1  0  0  0  0
 24 31  2  0  0  0  0
 24 32  1  0  0  0  0
 25 29  2  0  0  0  0
 25 33  1  0  0  0  0
 26 56  1  0  0  0  0
 26 57  1  0  0  0  0
 26 58  1  0  0  0  0
 27 34  1  0  0  0  0
 27 59  1  0  0  0  0
 28 35  2  0  0  0  0
 28 60  1  0  0  0  0
 29 37  1  0  0  0  0
 29 39  1  0  0  0  0
 30 44  1  0  0  0  0
 30 61  1  0  0  0  0
 30 62  1  0  0  0  0
 31 38  1  0  0  0  0
 32 41  2  0  0  0  0
 32 63  1  0  0  0  0
 33 40  2  0  0  0  0
 34 36  2  0  0  0  0
 34 64  1  0  0  0  0
 35 36  1  0  0  0  0
 35 65  1  0  0  0  0
 36 66  1  0  0  0  0
 37 42  2  0  0  0  0
 37 67  1  0  0  0  0
 38 43  2  0  0  0  0
 40 42  1  0  0  0  0
 40 68  1  0  0  0  0
 41 43  1  0  0  0  0
 41 69  1  0  0  0  0
 42 70  1  0  0  0  0
 43 71  1  0  0  0  0
 45 73  1  0  0  0  0
 45 74  1  0  0  0  0
 45 75  1  0  0  0  0
M  END
