DB11496
 OpenBabel07062211533D

 15 16  0  0  0  0  0  0  0  0999 V2000
   -1.6834   -1.9118   -0.0002 S   0  0  0  0  0  0  0  0  0  0  0  0
   -4.3192   -0.3675    0.0007 S   0  0  0  0  0  0  0  0  0  0  0  0
   -1.8260    0.6762   -0.0002 N   0  0  0  0  0  0  0  0  0  0  0  0
   -0.4561    0.3904   -0.0003 C   0  0  0  0  0  0  0  0  0  0  0  0
   -0.1780   -0.9748   -0.0003 C   0  0  0  0  0  0  0  0  0  0  0  0
    0.5536    1.3379   -0.0001 C   0  0  0  0  0  0  0  0  0  0  0  0
    1.1282   -1.4331   -0.0001 C   0  0  0  0  0  0  0  0  0  0  0  0
   -2.6594   -0.4291   -0.0003 C   0  0  0  0  0  0  0  0  0  0  0  0
    1.8744    0.8854    0.0001 C   0  0  0  0  0  0  0  0  0  0  0  0
    2.1595   -0.4900    0.0001 C   0  0  0  0  0  0  0  0  0  0  0  0
   -2.1703    1.6300    0.0001 H   0  0  0  0  0  0  0  0  0  0  0  0
    0.3354    2.4004   -0.0000 H   0  0  0  0  0  0  0  0  0  0  0  0
    1.3568   -2.4938    0.0001 H   0  0  0  0  0  0  0  0  0  0  0  0
    2.6906    1.6026    0.0001 H   0  0  0  0  0  0  0  0  0  0  0  0
    3.1939   -0.8229    0.0003 H   0  0  0  0  0  0  0  0  0  0  0  0
  1  5  1  0  0  0  0
  1  8  1  0  0  0  0
  2  8  2  0  0  0  0
  3  4  1  0  0  0  0
  3  8  1  0  0  0  0
  3 11  1  0  0  0  0
  4  5  2  0  0  0  0
  4  6  1  0  0  0  0
  5  7  1  0  0  0  0
  6  9  2  0  0  0  0
  6 12  1  0  0  0  0
  7 10  2  0  0  0  0
  7 13  1  0  0  0  0
  9 10  1  0  0  0  0
  9 14  1  0  0  0  0
 10 15  1  0  0  0  0
M  END
