DB11570
 OpenBabel07062211533D

 47 47  0  0  1  0  0  0  0  0999 V2000
   -0.0161    0.7196    0.3758 O   0  0  0  0  0  0  0  0  0  0  0  0
   -0.8076    2.4063    1.7278 O   0  0  0  0  0  0  0  0  0  0  0  0
   -6.1220   -0.3849   -0.5109 N   0  0  0  0  0  0  0  0  0  0  0  0
    2.3064    0.1659   -0.0669 C   0  0  1  0  0  0  0  0  0  0  0  0
    3.7397    0.7171    0.0871 C   0  0  0  0  0  0  0  0  0  0  0  0
    2.1502   -1.3139    0.3493 C   0  0  0  0  0  0  0  0  0  0  0  0
    4.7822   -0.0462   -0.7363 C   0  0  0  0  0  0  0  0  0  0  0  0
    1.3237    1.0887    0.6725 C   0  0  0  0  0  0  0  0  0  0  0  0
    6.2029    0.4979   -0.5631 C   0  0  0  0  0  0  0  0  0  0  0  0
    2.4686   -1.6129    1.8079 C   0  0  0  0  0  0  0  0  0  0  0  0
    7.2466   -0.2717   -1.3579 C   0  0  0  0  0  0  0  0  0  0  0  0
   -0.9882    1.4640    0.9722 C   0  0  0  0  0  0  0  0  0  0  0  0
   -2.3366    0.9784    0.5841 C   0  0  0  0  0  0  0  0  0  0  0  0
   -4.8418    0.0762   -0.1396 C   0  0  0  0  0  0  0  0  0  0  0  0
   -3.3807    1.8790    0.5332 C   0  0  0  0  0  0  0  0  0  0  0  0
   -2.5035   -0.3584    0.2851 C   0  0  0  0  0  0  0  0  0  0  0  0
   -4.6473    1.4229    0.1674 C   0  0  0  0  0  0  0  0  0  0  0  0
   -3.7699   -0.8145   -0.0807 C   0  0  0  0  0  0  0  0  0  0  0  0
   -6.5213   -1.7491   -0.2277 C   0  0  0  0  0  0  0  0  0  0  0  0
   -7.0497    0.4951   -1.1932 C   0  0  0  0  0  0  0  0  0  0  0  0
    2.0452    0.2078   -1.1339 H   0  0  0  0  0  0  0  0  0  0  0  0
    4.0321    0.7145    1.1440 H   0  0  0  0  0  0  0  0  0  0  0  0
    3.7542    1.7675   -0.2318 H   0  0  0  0  0  0  0  0  0  0  0  0
    1.1186   -1.6324    0.1526 H   0  0  0  0  0  0  0  0  0  0  0  0
    2.7748   -1.9488   -0.2885 H   0  0  0  0  0  0  0  0  0  0  0  0
    4.5053   -0.0098   -1.7969 H   0  0  0  0  0  0  0  0  0  0  0  0
    4.7907   -1.1014   -0.4434 H   0  0  0  0  0  0  0  0  0  0  0  0
    1.4906    1.0542    1.7550 H   0  0  0  0  0  0  0  0  0  0  0  0
    1.4769    2.1227    0.3385 H   0  0  0  0  0  0  0  0  0  0  0  0
    6.2284    1.5503   -0.8701 H   0  0  0  0  0  0  0  0  0  0  0  0
    6.4761    0.4695    0.4985 H   0  0  0  0  0  0  0  0  0  0  0  0
    1.8050   -1.0706    2.4870 H   0  0  0  0  0  0  0  0  0  0  0  0
    2.3346   -2.6821    2.0039 H   0  0  0  0  0  0  0  0  0  0  0  0
    3.5038   -1.3611    2.0541 H   0  0  0  0  0  0  0  0  0  0  0  0
    7.0255   -0.2355   -2.4294 H   0  0  0  0  0  0  0  0  0  0  0  0
    7.2770   -1.3213   -1.0487 H   0  0  0  0  0  0  0  0  0  0  0  0
    8.2399    0.1595   -1.1994 H   0  0  0  0  0  0  0  0  0  0  0  0
   -3.2411    2.9298    0.7689 H   0  0  0  0  0  0  0  0  0  0  0  0
   -1.6879   -1.0736    0.3338 H   0  0  0  0  0  0  0  0  0  0  0  0
   -5.4626    2.1403    0.1419 H   0  0  0  0  0  0  0  0  0  0  0  0
   -3.8850   -1.8673   -0.3225 H   0  0  0  0  0  0  0  0  0  0  0  0
   -7.6113   -1.8568   -0.2616 H   0  0  0  0  0  0  0  0  0  0  0  0
   -6.2062   -2.0599    0.7750 H   0  0  0  0  0  0  0  0  0  0  0  0
   -6.0995   -2.4385   -0.9665 H   0  0  0  0  0  0  0  0  0  0  0  0
   -7.8373   -0.0752   -1.6983 H   0  0  0  0  0  0  0  0  0  0  0  0
   -6.5463    1.0879   -1.9654 H   0  0  0  0  0  0  0  0  0  0  0  0
   -7.5373    1.1710   -0.4829 H   0  0  0  0  0  0  0  0  0  0  0  0
  1  8  1  0  0  0  0
  1 12  1  0  0  0  0
  2 12  2  0  0  0  0
  3 14  1  0  0  0  0
  3 19  1  0  0  0  0
  3 20  1  0  0  0  0
  4  5  1  0  0  0  0
  4  6  1  0  0  0  0
  4  8  1  0  0  0  0
  4 21  1  6  0  0  0
  5  7  1  0  0  0  0
  5 22  1  0  0  0  0
  5 23  1  0  0  0  0
  6 10  1  0  0  0  0
  6 24  1  0  0  0  0
  6 25  1  0  0  0  0
  7  9  1  0  0  0  0
  7 26  1  0  0  0  0
  7 27  1  0  0  0  0
  8 28  1  0  0  0  0
  8 29  1  0  0  0  0
  9 11  1  0  0  0  0
  9 30  1  0  0  0  0
  9 31  1  0  0  0  0
 10 32  1  0  0  0  0
 10 33  1  0  0  0  0
 10 34  1  0  0  0  0
 11 35  1  0  0  0  0
 11 36  1  0  0  0  0
 11 37  1  0  0  0  0
 12 13  1  0  0  0  0
 13 15  2  0  0  0  0
 13 16  1  0  0  0  0
 14 17  2  0  0  0  0
 14 18  1  0  0  0  0
 15 17  1  0  0  0  0
 15 38  1  0  0  0  0
 16 18  2  0  0  0  0
 16 39  1  0  0  0  0
 17 40  1  0  0  0  0
 18 41  1  0  0  0  0
 19 42  1  0  0  0  0
 19 43  1  0  0  0  0
 19 44  1  0  0  0  0
 20 45  1  0  0  0  0
 20 46  1  0  0  0  0
 20 47  1  0  0  0  0
M  END
