DB11263
 OpenBabel07062211533D

 50 52  0  0  1  0  0  0  0  0999 V2000
   -2.0650    0.6944    0.7093 O   0  0  0  0  0  0  0  0  0  0  0  0
   -6.0664    1.2093   -0.0587 O   0  0  0  0  0  0  0  0  0  0  0  0
   -4.1740    3.2378   -0.8707 O   0  0  0  0  0  0  0  0  0  0  0  0
   -2.3557   -1.5901    1.0848 O   0  0  0  0  0  0  0  0  0  0  0  0
   -4.8514   -1.4684   -0.2436 O   0  0  0  0  0  0  0  0  0  0  0  0
   -0.1536    2.6272    0.3000 O   0  0  0  0  0  0  0  0  0  0  0  0
   -0.3278   -5.6959   -0.2623 O   0  0  0  0  0  0  0  0  0  0  0  0
    7.5509    2.2161   -0.2672 O   0  0  0  0  0  0  0  0  0  0  0  0
   -3.8671    2.1516   -0.0005 C   0  0  1  0  0  0  0  0  0  0  0  0
   -4.7053    0.9356   -0.3948 C   0  0  1  0  0  0  0  0  0  0  0  0
   -2.3727    1.8347   -0.0943 C   0  0  1  0  0  0  0  0  0  0  0  0
   -4.2411   -0.3198    0.3441 C   0  0  2  0  0  0  0  0  0  0  0  0
   -2.7241   -0.4865    0.2579 C   0  0  1  0  0  0  0  0  0  0  0  0
   -1.5171    2.9944    0.4059 C   0  0  0  0  0  0  0  0  0  0  0  0
   -1.2461   -2.2950    0.7065 C   0  0  0  0  0  0  0  0  0  0  0  0
   -0.0153   -1.6515    0.6186 C   0  0  0  0  0  0  0  0  0  0  0  0
   -1.3565   -3.6507    0.4123 C   0  0  0  0  0  0  0  0  0  0  0  0
    1.1159   -2.3706    0.2326 C   0  0  0  0  0  0  0  0  0  0  0  0
   -0.2251   -4.3695    0.0265 C   0  0  0  0  0  0  0  0  0  0  0  0
    1.0109   -3.7296   -0.0634 C   0  0  0  0  0  0  0  0  0  0  0  0
    2.4048   -1.7033    0.1390 C   0  0  0  0  0  0  0  0  0  0  0  0
    2.5844   -0.3665    0.0200 C   0  0  0  0  0  0  0  0  0  0  0  0
    3.8905    0.3120   -0.0553 C   0  0  0  0  0  0  0  0  0  0  0  0
    5.0125   -0.4139   -0.4204 C   0  0  0  0  0  0  0  0  0  0  0  0
    3.9700    1.6630    0.2403 C   0  0  0  0  0  0  0  0  0  0  0  0
    6.2483    0.2291   -0.4917 C   0  0  0  0  0  0  0  0  0  0  0  0
    5.2058    2.3062    0.1690 C   0  0  0  0  0  0  0  0  0  0  0  0
    6.3451    1.5891   -0.1971 C   0  0  0  0  0  0  0  0  0  0  0  0
   -4.6806    0.7759   -1.4799 H   0  0  0  0  0  0  0  0  0  0  0  0
   -4.1321    2.4622    1.0176 H   0  0  0  0  0  0  0  0  0  0  0  0
   -2.0789    1.6198   -1.1309 H   0  0  0  0  0  0  0  0  0  0  0  0
   -4.5681   -0.2873    1.3902 H   0  0  0  0  0  0  0  0  0  0  0  0
   -2.4317   -0.6974   -0.7816 H   0  0  0  0  0  0  0  0  0  0  0  0
   -1.7219    3.2202    1.4578 H   0  0  0  0  0  0  0  0  0  0  0  0
   -1.6767    3.8998   -0.1865 H   0  0  0  0  0  0  0  0  0  0  0  0
   -6.3262    2.0180   -0.5324 H   0  0  0  0  0  0  0  0  0  0  0  0
   -3.9350    2.9742   -1.7758 H   0  0  0  0  0  0  0  0  0  0  0  0
   -4.5712   -1.5164   -1.1737 H   0  0  0  0  0  0  0  0  0  0  0  0
   -0.0190    1.8379    0.8516 H   0  0  0  0  0  0  0  0  0  0  0  0
    0.0501   -0.6062    0.8986 H   0  0  0  0  0  0  0  0  0  0  0  0
   -2.3206   -4.1477    0.4821 H   0  0  0  0  0  0  0  0  0  0  0  0
    1.8895   -4.2953   -0.3665 H   0  0  0  0  0  0  0  0  0  0  0  0
    3.2587   -2.3721    0.1998 H   0  0  0  0  0  0  0  0  0  0  0  0
    1.7332    0.3055   -0.0421 H   0  0  0  0  0  0  0  0  0  0  0  0
    0.5499   -6.0338   -0.5104 H   0  0  0  0  0  0  0  0  0  0  0  0
    4.9811   -1.4670   -0.6804 H   0  0  0  0  0  0  0  0  0  0  0  0
    3.0921    2.2349    0.5285 H   0  0  0  0  0  0  0  0  0  0  0  0
    7.1317   -0.3331   -0.7821 H   0  0  0  0  0  0  0  0  0  0  0  0
    5.2679    3.3660    0.4013 H   0  0  0  0  0  0  0  0  0  0  0  0
    7.4332    3.1525   -0.0319 H   0  0  0  0  0  0  0  0  0  0  0  0
  1 11  1  0  0  0  0
  1 13  1  0  0  0  0
  2 10  1  0  0  0  0
  2 36  1  0  0  0  0
  3  9  1  0  0  0  0
  3 37  1  0  0  0  0
  4 13  1  0  0  0  0
  4 15  1  0  0  0  0
  5 12  1  0  0  0  0
  5 38  1  0  0  0  0
  6 14  1  0  0  0  0
  6 39  1  0  0  0  0
  7 19  1  0  0  0  0
  7 45  1  0  0  0  0
  8 28  1  0  0  0  0
  8 50  1  0  0  0  0
  9 10  1  6  0  0  0
  9 30  1  0  0  0  0
 10 12  1  1  0  0  0
 10 29  1  0  0  0  0
 11  9  1  1  0  0  0
 11 14  1  0  0  0  0
 11 31  1  0  0  0  0
 12 13  1  6  0  0  0
 12 32  1  0  0  0  0
 13 33  1  6  0  0  0
 14 34  1  0  0  0  0
 14 35  1  0  0  0  0
 15 16  2  0  0  0  0
 15 17  1  0  0  0  0
 16 18  1  0  0  0  0
 16 40  1  0  0  0  0
 17 19  2  0  0  0  0
 17 41  1  0  0  0  0
 18 20  2  0  0  0  0
 18 21  1  0  0  0  0
 19 20  1  0  0  0  0
 20 42  1  0  0  0  0
 21 22  2  0  0  0  0
 21 43  1  0  0  0  0
 22 23  1  0  0  0  0
 22 44  1  0  0  0  0
 23 24  2  0  0  0  0
 23 25  1  0  0  0  0
 24 26  1  0  0  0  0
 24 46  1  0  0  0  0
 25 27  2  0  0  0  0
 25 47  1  0  0  0  0
 26 28  2  0  0  0  0
 26 48  1  0  0  0  0
 27 28  1  0  0  0  0
 27 49  1  0  0  0  0
M  END
