DB11274
 OpenBabel07062211533D

 85 91  0  0  1  0  0  0  0  0999 V2000
    2.1962    0.4631   -1.4839 O   0  0  0  0  0  0  0  0  0  0  0  0
    1.8169   -1.6014   -0.4244 O   0  0  0  0  0  0  0  0  0  0  0  0
    2.9853    1.9688    1.5966 O   0  0  0  0  0  0  0  0  0  0  0  0
    5.7198   -2.6517    1.2937 O   0  0  0  0  0  0  0  0  0  0  0  0
   -0.4510    1.9338   -2.1591 O   0  0  0  0  0  0  0  0  0  0  0  0
    3.3043   -0.0453    0.4392 N   0  0  0  0  0  0  0  0  0  0  0  0
    4.7583   -2.0835   -0.7166 N   0  0  0  0  0  0  0  0  0  0  0  0
    0.5574    1.4510   -0.1172 N   0  0  0  0  0  0  0  0  0  0  0  0
   -4.2004    2.2744   -0.2650 N   0  0  0  0  0  0  0  0  0  0  0  0
   -7.5266   -2.7245    0.2000 N   0  0  0  0  0  0  0  0  0  0  0  0
    3.9744   -1.1789   -1.5452 C   0  0  2  0  0  0  0  0  0  0  0  0
    2.7911   -0.6267   -0.7711 C   0  0  2  0  0  0  0  0  0  0  0  0
    1.9250    1.5192   -0.5525 C   0  0  1  0  0  0  0  0  0  0  0  0
    4.2185   -0.7666    1.3191 C   0  0  2  0  0  0  0  0  0  0  0  0
    3.6993   -1.9892   -2.8114 C   0  0  0  0  0  0  0  0  0  0  0  0
    5.3124   -3.1747   -1.5029 C   0  0  0  0  0  0  0  0  0  0  0  0
    2.8096    1.2308    0.6395 C   0  0  0  0  0  0  0  0  0  0  0  0
   -3.6673   -0.1151    0.3187 C   0  0  2  0  0  0  0  0  0  0  0  0
    4.9803   -2.8130   -2.9458 C   0  0  0  0  0  0  0  0  0  0  0  0
   -4.6948    0.8798   -0.3804 C   0  0  1  0  0  0  0  0  0  0  0  0
    4.9722   -1.9221    0.6377 C   0  0  0  0  0  0  0  0  0  0  0  0
   -1.8339    1.5088   -0.2583 C   0  0  2  0  0  0  0  0  0  0  0  0
   -2.2721    0.0478   -0.2978 C   0  0  0  0  0  0  0  0  0  0  0  0
    2.2436    2.8558   -1.1958 C   0  0  0  0  0  0  0  0  0  0  0  0
    3.4757   -1.2940    2.5464 C   0  0  0  0  0  0  0  0  0  0  0  0
   -2.8796    2.4193   -0.9012 C   0  0  0  0  0  0  0  0  0  0  0  0
   -6.1597    0.7149    0.1805 C   0  0  0  0  0  0  0  0  0  0  0  0
   -4.1769   -1.5463    0.2795 C   0  0  0  0  0  0  0  0  0  0  0  0
   -0.5179    1.6652   -0.9624 C   0  0  0  0  0  0  0  0  0  0  0  0
    2.7543   -0.1948    3.3407 C   0  0  0  0  0  0  0  0  0  0  0  0
   -5.5661   -1.7204    0.2441 C   0  0  0  0  0  0  0  0  0  0  0  0
   -6.5583   -0.7214    0.1963 C   0  0  0  0  0  0  0  0  0  0  0  0
    3.6821    2.8816   -1.7171 C   0  0  0  0  0  0  0  0  0  0  0  0
    2.0171    4.0040   -0.2099 C   0  0  0  0  0  0  0  0  0  0  0  0
   -5.1195    3.2553   -0.8502 C   0  0  0  0  0  0  0  0  0  0  0  0
   -6.1702   -2.9634    0.2474 C   0  0  0  0  0  0  0  0  0  0  0  0
   -3.4125   -2.7181    0.3520 C   0  0  0  0  0  0  0  0  0  0  0  0
   -7.7723   -1.3668    0.1716 C   0  0  0  0  0  0  0  0  0  0  0  0
    3.7058    0.9047    3.8150 C   0  0  0  0  0  0  0  0  0  0  0  0
    1.6449    0.4166    2.4815 C   0  0  0  0  0  0  0  0  0  0  0  0
   -5.4177   -4.1358    0.2959 C   0  0  0  0  0  0  0  0  0  0  0  0
   -4.0232   -3.9828    0.3521 C   0  0  0  0  0  0  0  0  0  0  0  0
    4.6505   -0.3527   -1.8113 H   0  0  0  0  0  0  0  0  0  0  0  0
    4.9971   -0.0562    1.6150 H   0  0  0  0  0  0  0  0  0  0  0  0
    3.5145   -1.3540   -3.6824 H   0  0  0  0  0  0  0  0  0  0  0  0
    2.8508   -2.6707   -2.6968 H   0  0  0  0  0  0  0  0  0  0  0  0
    4.8115   -4.0978   -1.1917 H   0  0  0  0  0  0  0  0  0  0  0  0
    6.3862   -3.2758   -1.3203 H   0  0  0  0  0  0  0  0  0  0  0  0
   -3.6049    0.1591    1.3825 H   0  0  0  0  0  0  0  0  0  0  0  0
    4.8581   -3.6930   -3.5830 H   0  0  0  0  0  0  0  0  0  0  0  0
    5.7776   -2.1905   -3.3695 H   0  0  0  0  0  0  0  0  0  0  0  0
   -4.7379    0.6089   -1.4481 H   0  0  0  0  0  0  0  0  0  0  0  0
   -1.7190    1.8169    0.7903 H   0  0  0  0  0  0  0  0  0  0  0  0
   -1.5368   -0.5594    0.2451 H   0  0  0  0  0  0  0  0  0  0  0  0
   -2.2701   -0.3219   -1.3324 H   0  0  0  0  0  0  0  0  0  0  0  0
    1.6115    3.0285   -2.0729 H   0  0  0  0  0  0  0  0  0  0  0  0
    4.1854   -1.7957    3.2170 H   0  0  0  0  0  0  0  0  0  0  0  0
    2.7504   -2.0625    2.2476 H   0  0  0  0  0  0  0  0  0  0  0  0
   -2.9596    2.2195   -1.9789 H   0  0  0  0  0  0  0  0  0  0  0  0
   -2.5338    3.4570   -0.8001 H   0  0  0  0  0  0  0  0  0  0  0  0
    0.3430    1.3992    0.8688 H   0  0  0  0  0  0  0  0  0  0  0  0
   -6.8728    1.2675   -0.4413 H   0  0  0  0  0  0  0  0  0  0  0  0
   -6.2152    1.1134    1.2010 H   0  0  0  0  0  0  0  0  0  0  0  0
    1.6239   -2.1414   -1.2060 H   0  0  0  0  0  0  0  0  0  0  0  0
    2.3082   -0.6589    4.2308 H   0  0  0  0  0  0  0  0  0  0  0  0
    4.4166    2.7349   -0.9187 H   0  0  0  0  0  0  0  0  0  0  0  0
    3.8981    3.8496   -2.1835 H   0  0  0  0  0  0  0  0  0  0  0  0
    3.8478    2.1141   -2.4801 H   0  0  0  0  0  0  0  0  0  0  0  0
    2.8041    4.0815    0.5451 H   0  0  0  0  0  0  0  0  0  0  0  0
    2.0320    4.9551   -0.7563 H   0  0  0  0  0  0  0  0  0  0  0  0
    1.0475    3.9489    0.2935 H   0  0  0  0  0  0  0  0  0  0  0  0
   -6.0498    3.3192   -0.2776 H   0  0  0  0  0  0  0  0  0  0  0  0
   -5.3591    3.0242   -1.8942 H   0  0  0  0  0  0  0  0  0  0  0  0
   -4.6873    4.2623   -0.8143 H   0  0  0  0  0  0  0  0  0  0  0  0
   -2.3290   -2.6699    0.4140 H   0  0  0  0  0  0  0  0  0  0  0  0
   -8.7871   -0.9965    0.1345 H   0  0  0  0  0  0  0  0  0  0  0  0
    4.4509    1.2552    3.1012 H   0  0  0  0  0  0  0  0  0  0  0  0
    4.2915    0.5106    4.6558 H   0  0  0  0  0  0  0  0  0  0  0  0
    3.1552    1.7669    4.2076 H   0  0  0  0  0  0  0  0  0  0  0  0
    1.3136   -0.1637    1.6197 H   0  0  0  0  0  0  0  0  0  0  0  0
    1.3625    1.4654    2.6416 H   0  0  0  0  0  0  0  0  0  0  0  0
    0.7674    0.0711    3.0750 H   0  0  0  0  0  0  0  0  0  0  0  0
   -8.2407   -3.4394    0.1908 H   0  0  0  0  0  0  0  0  0  0  0  0
   -5.8798   -5.1161    0.2998 H   0  0  0  0  0  0  0  0  0  0  0  0
   -3.3974   -4.8712    0.4031 H   0  0  0  0  0  0  0  0  0  0  0  0
  1 12  1  0  0  0  0
  1 13  1  0  0  0  0
  2 64  1  0  0  0  0
  3 17  2  0  0  0  0
  4 21  2  0  0  0  0
  5 29  2  0  0  0  0
  6 12  1  0  0  0  0
  6 14  1  0  0  0  0
  6 17  1  0  0  0  0
  7 11  1  0  0  0  0
  7 16  1  0  0  0  0
  7 21  1  0  0  0  0
  8 29  1  0  0  0  0
  8 61  1  0  0  0  0
  9 20  1  0  0  0  0
  9 26  1  0  0  0  0
  9 35  1  0  0  0  0
 10 36  1  0  0  0  0
 10 38  2  0  0  0  0
 10 83  1  0  0  0  0
 11 12  1  1  0  0  0
 11 15  1  0  0  0  0
 11 43  1  0  0  0  0
 12  2  1  1  0  0  0
 13  8  1  1  0  0  0
 13 17  1  0  0  0  0
 13 24  1  0  0  0  0
 14 21  1  0  0  0  0
 14 25  1  0  0  0  0
 14 44  1  1  0  0  0
 15 19  1  0  0  0  0
 15 45  1  0  0  0  0
 15 46  1  0  0  0  0
 16 19  1  0  0  0  0
 16 47  1  0  0  0  0
 16 48  1  0  0  0  0
 18 20  1  6  0  0  0
 18 23  1  0  0  0  0
 18 28  1  0  0  0  0
 18 49  1  0  0  0  0
 19 50  1  0  0  0  0
 19 51  1  0  0  0  0
 20 27  1  0  0  0  0
 20 52  1  6  0  0  0
 22 23  1  0  0  0  0
 22 26  1  0  0  0  0
 22 29  1  0  0  0  0
 22 53  1  1  0  0  0
 23 54  1  0  0  0  0
 23 55  1  0  0  0  0
 24 33  1  0  0  0  0
 24 34  1  0  0  0  0
 24 56  1  0  0  0  0
 25 30  1  0  0  0  0
 25 57  1  0  0  0  0
 25 58  1  0  0  0  0
 26 59  1  0  0  0  0
 26 60  1  0  0  0  0
 27 32  1  0  0  0  0
 27 62  1  0  0  0  0
 27 63  1  0  0  0  0
 28 31  1  0  0  0  0
 28 37  2  0  0  0  0
 30 39  1  0  0  0  0
 30 40  1  0  0  0  0
 30 65  1  0  0  0  0
 31 32  2  0  0  0  0
 31 36  2  0  0  0  0
 32 38  1  0  0  0  0
 33 66  1  0  0  0  0
 33 67  1  0  0  0  0
 33 68  1  0  0  0  0
 34 69  1  0  0  0  0
 34 70  1  0  0  0  0
 34 71  1  0  0  0  0
 35 72  1  0  0  0  0
 35 73  1  0  0  0  0
 35 74  1  0  0  0  0
 36 41  1  0  0  0  0
 37 42  1  0  0  0  0
 37 75  1  0  0  0  0
 38 76  1  0  0  0  0
 39 77  1  0  0  0  0
 39 78  1  0  0  0  0
 39 79  1  0  0  0  0
 40 80  1  0  0  0  0
 40 81  1  0  0  0  0
 40 82  1  0  0  0  0
 41 42  2  0  0  0  0
 41 84  1  0  0  0  0
 42 85  1  0  0  0  0
M  END
