DB11071
 OpenBabel07062211533D

 26 27  0  0  0  0  0  0  0  0999 V2000
   -0.5393   -0.4817    0.4594 O   0  0  0  0  0  0  0  0  0  0  0  0
    2.2647    2.2411   -0.8251 O   0  0  0  0  0  0  0  0  0  0  0  0
   -0.1778    1.0744   -1.2388 O   0  0  0  0  0  0  0  0  0  0  0  0
    1.6686    0.0125   -0.1668 C   0  0  0  0  0  0  0  0  0  0  0  0
    2.6267    1.0021   -0.3875 C   0  0  0  0  0  0  0  0  0  0  0  0
    2.0599   -1.2497    0.2797 C   0  0  0  0  0  0  0  0  0  0  0  0
   -1.9119   -0.2789    0.2931 C   0  0  0  0  0  0  0  0  0  0  0  0
    0.2551    0.2758   -0.3975 C   0  0  0  0  0  0  0  0  0  0  0  0
    3.9759    0.7293   -0.1616 C   0  0  0  0  0  0  0  0  0  0  0  0
    3.4093   -1.5224    0.5054 C   0  0  0  0  0  0  0  0  0  0  0  0
    4.3671   -0.5330    0.2847 C   0  0  0  0  0  0  0  0  0  0  0  0
   -2.5937   -1.0726   -0.6021 C   0  0  0  0  0  0  0  0  0  0  0  0
   -2.5284    0.7069    1.0308 C   0  0  0  0  0  0  0  0  0  0  0  0
   -3.9635   -0.8695   -0.7687 C   0  0  0  0  0  0  0  0  0  0  0  0
   -3.8983    0.9098    0.8644 C   0  0  0  0  0  0  0  0  0  0  0  0
   -4.6158    0.1215   -0.0355 C   0  0  0  0  0  0  0  0  0  0  0  0
    1.3406   -2.0472    0.4470 H   0  0  0  0  0  0  0  0  0  0  0  0
    4.7332    1.4903   -0.3298 H   0  0  0  0  0  0  0  0  0  0  0  0
    3.7146   -2.5063    0.8496 H   0  0  0  0  0  0  0  0  0  0  0  0
    5.4177   -0.7458    0.4596 H   0  0  0  0  0  0  0  0  0  0  0  0
   -2.0858   -1.8443   -1.1723 H   0  0  0  0  0  0  0  0  0  0  0  0
   -1.9697    1.3199    1.7311 H   0  0  0  0  0  0  0  0  0  0  0  0
   -4.5223   -1.4832   -1.4692 H   0  0  0  0  0  0  0  0  0  0  0  0
   -4.4064    1.6815    1.4353 H   0  0  0  0  0  0  0  0  0  0  0  0
   -5.6825    0.2795   -0.1650 H   0  0  0  0  0  0  0  0  0  0  0  0
    3.0620    2.7898   -0.9204 H   0  0  0  0  0  0  0  0  0  0  0  0
  1  7  1  0  0  0  0
  1  8  1  0  0  0  0
  2  5  1  0  0  0  0
  2 26  1  0  0  0  0
  3  8  2  0  0  0  0
  4  5  2  0  0  0  0
  4  6  1  0  0  0  0
  4  8  1  0  0  0  0
  5  9  1  0  0  0  0
  6 10  2  0  0  0  0
  6 17  1  0  0  0  0
  7 12  2  0  0  0  0
  7 13  1  0  0  0  0
  9 11  2  0  0  0  0
  9 18  1  0  0  0  0
 10 11  1  0  0  0  0
 10 19  1  0  0  0  0
 11 20  1  0  0  0  0
 12 14  1  0  0  0  0
 12 21  1  0  0  0  0
 13 15  2  0  0  0  0
 13 22  1  0  0  0  0
 14 16  2  0  0  0  0
 14 23  1  0  0  0  0
 15 16  1  0  0  0  0
 15 24  1  0  0  0  0
 16 25  1  0  0  0  0
M  END
