DB11611
 OpenBabel07062211533D

 65 69  0  0  1  0  0  0  0  0999 V2000
    1.6363    0.3056   -1.9760 Cl  0  0  0  0  0  0  0  0  0  0  0  0
    0.0753   -3.9055    1.0672 Cl  0  0  0  0  0  0  0  0  0  0  0  0
    3.7766    3.1179    0.6252 S   0  0  0  0  0  0  0  0  0  0  0  0
   -4.6775    3.0949   -1.0663 O   0  0  0  0  0  0  0  0  0  0  0  0
    2.0508   -3.1165   -1.7342 O   0  0  0  0  0  0  0  0  0  0  0  0
   -7.8252   -1.4218   -1.5711 O   0  0  0  0  0  0  0  0  0  0  0  0
    3.3548   -4.4968    1.2459 O   0  0  0  0  0  0  0  0  0  0  0  0
    5.4360   -4.8460    0.4353 O   0  0  0  0  0  0  0  0  0  0  0  0
    2.6877    2.5229    1.3881 O   0  0  0  0  0  0  0  0  0  0  0  0
    3.4823    4.1005   -0.4081 O   0  0  0  0  0  0  0  0  0  0  0  0
   -3.2227    1.5281   -0.1188 N   0  0  0  0  0  0  0  0  0  0  0  0
    3.0612   -2.1540    0.1177 N   0  0  0  0  0  0  0  0  0  0  0  0
   -1.0171    1.5863   -1.1837 C   0  0  0  0  0  0  0  0  0  0  0  0
   -2.0313    2.3455   -0.3370 C   0  0  0  0  0  0  0  0  0  0  0  0
   -0.7334    0.2242   -0.6063 C   0  0  0  0  0  0  0  0  0  0  0  0
   -2.9979    0.2416    0.5583 C   0  0  0  0  0  0  0  0  0  0  0  0
   -1.6858   -0.4178    0.2056 C   0  0  0  0  0  0  0  0  0  0  0  0
    0.4650   -0.4311   -0.9202 C   0  0  0  0  0  0  0  0  0  0  0  0
   -1.4059   -1.6941    0.7154 C   0  0  0  0  0  0  0  0  0  0  0  0
    0.7290   -1.7022   -0.4111 C   0  0  0  0  0  0  0  0  0  0  0  0
   -4.4749    2.0217   -0.4999 C   0  0  0  0  0  0  0  0  0  0  0  0
   -0.2042   -2.3320    0.4086 C   0  0  0  0  0  0  0  0  0  0  0  0
    4.3679   -2.7383   -0.0818 C   0  0  1  0  0  0  0  0  0  0  0  0
   -5.6630    1.2070   -0.2016 C   0  0  0  0  0  0  0  0  0  0  0  0
    1.9807   -2.3877   -0.7343 C   0  0  0  0  0  0  0  0  0  0  0  0
    5.4699   -1.8363    0.4892 C   0  0  0  0  0  0  0  0  0  0  0  0
    5.4738   -0.4543   -0.1184 C   0  0  0  0  0  0  0  0  0  0  0  0
   -6.1051    0.2728   -1.1431 C   0  0  0  0  0  0  0  0  0  0  0  0
   -6.3278    1.3799    1.0151 C   0  0  0  0  0  0  0  0  0  0  0  0
    4.7183    0.5649    0.4614 C   0  0  0  0  0  0  0  0  0  0  0  0
   -7.2355   -0.4661   -0.7991 C   0  0  0  0  0  0  0  0  0  0  0  0
    4.4519   -4.1222    0.5454 C   0  0  0  0  0  0  0  0  0  0  0  0
    4.7221    1.8416   -0.1002 C   0  0  0  0  0  0  0  0  0  0  0  0
   -7.9252   -0.3237    0.4006 C   0  0  0  0  0  0  0  0  0  0  0  0
    6.2329   -0.1967   -1.2598 C   0  0  0  0  0  0  0  0  0  0  0  0
   -7.4628    0.6213    1.3331 C   0  0  0  0  0  0  0  0  0  0  0  0
    5.4813    2.0992   -1.2416 C   0  0  0  0  0  0  0  0  0  0  0  0
    6.2368    1.0801   -1.8216 C   0  0  0  0  0  0  0  0  0  0  0  0
   -8.9964   -1.2537    0.3426 C   0  0  0  0  0  0  0  0  0  0  0  0
   -8.8902   -1.8925   -0.8712 C   0  0  0  0  0  0  0  0  0  0  0  0
    4.8798    3.8722    1.7988 C   0  0  0  0  0  0  0  0  0  0  0  0
   -0.1136    2.2031   -1.2286 H   0  0  0  0  0  0  0  0  0  0  0  0
   -1.4017    1.4585   -2.2030 H   0  0  0  0  0  0  0  0  0  0  0  0
   -1.6169    2.5863    0.6500 H   0  0  0  0  0  0  0  0  0  0  0  0
   -2.2881    3.2919   -0.8237 H   0  0  0  0  0  0  0  0  0  0  0  0
   -3.8131   -0.4513    0.3346 H   0  0  0  0  0  0  0  0  0  0  0  0
   -3.0125    0.4523    1.6345 H   0  0  0  0  0  0  0  0  0  0  0  0
   -2.1391   -2.1849    1.3525 H   0  0  0  0  0  0  0  0  0  0  0  0
    4.5082   -2.8746   -1.1614 H   0  0  0  0  0  0  0  0  0  0  0  0
    5.3605   -1.7496    1.5794 H   0  0  0  0  0  0  0  0  0  0  0  0
    6.4539   -2.3000    0.3380 H   0  0  0  0  0  0  0  0  0  0  0  0
    2.9033   -1.6039    0.9573 H   0  0  0  0  0  0  0  0  0  0  0  0
   -5.6004    0.1256   -2.0913 H   0  0  0  0  0  0  0  0  0  0  0  0
   -5.9680    2.1115    1.7355 H   0  0  0  0  0  0  0  0  0  0  0  0
    4.1393    0.3615    1.3583 H   0  0  0  0  0  0  0  0  0  0  0  0
    6.8238   -0.9833   -1.7216 H   0  0  0  0  0  0  0  0  0  0  0  0
   -7.9690    0.7667    2.2826 H   0  0  0  0  0  0  0  0  0  0  0  0
    5.5046    3.0874   -1.6922 H   0  0  0  0  0  0  0  0  0  0  0  0
    6.8287    1.2807   -2.7098 H   0  0  0  0  0  0  0  0  0  0  0  0
   -9.7524   -1.4358    1.0933 H   0  0  0  0  0  0  0  0  0  0  0  0
    4.3459    4.6892    2.2889 H   0  0  0  0  0  0  0  0  0  0  0  0
    5.1773    3.1256    2.5375 H   0  0  0  0  0  0  0  0  0  0  0  0
    5.7501    4.2621    1.2679 H   0  0  0  0  0  0  0  0  0  0  0  0
   -9.4645   -2.6657   -1.3601 H   0  0  0  0  0  0  0  0  0  0  0  0
    3.4551   -5.3922    1.6338 H   0  0  0  0  0  0  0  0  0  0  0  0
  1 18  1  0  0  0  0
  2 22  1  0  0  0  0
  3  9  2  0  0  0  0
  3 10  2  0  0  0  0
  3 33  1  0  0  0  0
  3 41  1  0  0  0  0
  4 21  2  0  0  0  0
  5 25  2  0  0  0  0
  6 31  1  0  0  0  0
  6 40  1  0  0  0  0
  7 32  1  0  0  0  0
  7 65  1  0  0  0  0
  8 32  2  0  0  0  0
 11 14  1  0  0  0  0
 11 16  1  0  0  0  0
 11 21  1  0  0  0  0
 12 23  1  0  0  0  0
 12 25  1  0  0  0  0
 12 52  1  0  0  0  0
 13 14  1  0  0  0  0
 13 15  1  0  0  0  0
 13 42  1  0  0  0  0
 13 43  1  0  0  0  0
 14 44  1  0  0  0  0
 14 45  1  0  0  0  0
 15 17  2  0  0  0  0
 15 18  1  0  0  0  0
 16 17  1  0  0  0  0
 16 46  1  0  0  0  0
 16 47  1  0  0  0  0
 17 19  1  0  0  0  0
 18 20  2  0  0  0  0
 19 22  2  0  0  0  0
 19 48  1  0  0  0  0
 20 22  1  0  0  0  0
 20 25  1  0  0  0  0
 21 24  1  0  0  0  0
 23 26  1  0  0  0  0
 23 32  1  0  0  0  0
 23 49  1  6  0  0  0
 24 28  2  0  0  0  0
 24 29  1  0  0  0  0
 26 27  1  0  0  0  0
 26 50  1  0  0  0  0
 26 51  1  0  0  0  0
 27 30  2  0  0  0  0
 27 35  1  0  0  0  0
 28 31  1  0  0  0  0
 28 53  1  0  0  0  0
 29 36  2  0  0  0  0
 29 54  1  0  0  0  0
 30 33  1  0  0  0  0
 30 55  1  0  0  0  0
 31 34  2  0  0  0  0
 33 37  2  0  0  0  0
 34 36  1  0  0  0  0
 34 39  1  0  0  0  0
 35 38  2  0  0  0  0
 35 56  1  0  0  0  0
 36 57  1  0  0  0  0
 37 38  1  0  0  0  0
 37 58  1  0  0  0  0
 38 59  1  0  0  0  0
 39 40  2  0  0  0  0
 39 60  1  0  0  0  0
 40 64  1  0  0  0  0
 41 61  1  0  0  0  0
 41 62  1  0  0  0  0
 41 63  1  0  0  0  0
M  END
