DB11085
 OpenBabel07062211533D

 14 14  0  0  0  0  0  0  0  0999 V2000
    2.6626   -0.4745   -0.0004 O   0  0  0  0  0  0  0  0  0  0  0  0
   -1.9519   -1.6959   -0.0002 O   0  0  0  0  0  0  0  0  0  0  0  0
    1.3491   -0.1185    0.0002 C   0  0  0  0  0  0  0  0  0  0  0  0
   -0.9864   -0.7366    0.0004 C   0  0  0  0  0  0  0  0  0  0  0  0
    0.3598   -1.1017    0.0003 C   0  0  0  0  0  0  0  0  0  0  0  0
    0.9923    1.2300    0.0002 C   0  0  0  0  0  0  0  0  0  0  0  0
   -1.3432    0.6118    0.0001 C   0  0  0  0  0  0  0  0  0  0  0  0
   -0.3538    1.5951    0.0001 C   0  0  0  0  0  0  0  0  0  0  0  0
    0.6308   -2.1546    0.0002 H   0  0  0  0  0  0  0  0  0  0  0  0
    1.7584    2.0006   -0.0000 H   0  0  0  0  0  0  0  0  0  0  0  0
   -2.3884    0.9096   -0.0002 H   0  0  0  0  0  0  0  0  0  0  0  0
   -0.6317    2.6451   -0.0002 H   0  0  0  0  0  0  0  0  0  0  0  0
    2.7263   -1.4451   -0.0003 H   0  0  0  0  0  0  0  0  0  0  0  0
   -2.8240   -1.2652   -0.0002 H   0  0  0  0  0  0  0  0  0  0  0  0
  1  3  1  0  0  0  0
  1 13  1  0  0  0  0
  2  4  1  0  0  0  0
  2 14  1  0  0  0  0
  3  5  2  0  0  0  0
  3  6  1  0  0  0  0
  4  5  1  0  0  0  0
  4  7  2  0  0  0  0
  5  9  1  0  0  0  0
  6  8  2  0  0  0  0
  6 10  1  0  0  0  0
  7  8  1  0  0  0  0
  7 11  1  0  0  0  0
  8 12  1  0  0  0  0
M  END
