DB11363
 OpenBabel07062211533D

 70 75  0  0  1  0  0  0  0  0999 V2000
    8.5682    0.9916    0.0377 O   0  0  0  0  0  0  0  0  0  0  0  0
   -4.2421   -2.7401    0.2209 O   0  0  0  0  0  0  0  0  0  0  0  0
    1.6180   -0.2385    0.0966 N   0  0  0  0  0  0  0  0  0  0  0  0
    5.8200    0.2509    0.0353 N   0  0  0  0  0  0  0  0  0  0  0  0
   -5.6222    1.5982   -0.0468 N   0  0  0  0  0  0  0  0  0  0  0  0
  -11.5628    0.6974   -0.0309 N   0  0  0  0  0  0  0  0  0  0  0  0
    4.3955    0.5565    0.1504 C   0  0  2  0  0  0  0  0  0  0  0  0
    3.7752   -0.2566    1.2886 C   0  0  0  0  0  0  0  0  0  0  0  0
    3.6818    0.2329   -1.1636 C   0  0  0  0  0  0  0  0  0  0  0  0
    2.1764    0.4791   -1.0548 C   0  0  0  0  0  0  0  0  0  0  0  0
    2.2713   -0.0038    1.3920 C   0  0  0  0  0  0  0  0  0  0  0  0
   -3.0814    1.3562   -0.0183 C   0  0  0  0  0  0  0  0  0  0  0  0
    0.2562   -0.5634    0.1106 C   0  0  0  0  0  0  0  0  0  0  0  0
   -2.0718    0.1907    0.0554 C   0  0  0  0  0  0  0  0  0  0  0  0
   -4.4915    0.8254    0.0055 C   0  0  2  0  0  0  0  0  0  0  0  0
    6.5264    0.5787    1.2814 C   0  0  0  0  0  0  0  0  0  0  0  0
    6.4206    0.9799   -1.0905 C   0  0  0  0  0  0  0  0  0  0  0  0
   -0.6887    0.4623    0.0458 C   0  0  0  0  0  0  0  0  0  0  0  0
   -2.4749   -1.1644    0.1340 C   0  0  0  0  0  0  0  0  0  0  0  0
   -0.1583   -1.8873    0.1869 C   0  0  0  0  0  0  0  0  0  0  0  0
   -4.8819   -0.4922    0.0818 C   0  0  0  0  0  0  0  0  0  0  0  0
   -2.8669    2.1445   -1.3295 C   0  0  0  0  0  0  0  0  0  0  0  0
   -2.8806    2.2933    1.1935 C   0  0  0  0  0  0  0  0  0  0  0  0
   -1.5180   -2.1900    0.1990 C   0  0  0  0  0  0  0  0  0  0  0  0
   -3.9142   -1.5623    0.1513 C   0  0  0  0  0  0  0  0  0  0  0  0
    8.0121    0.2635    1.1332 C   0  0  0  0  0  0  0  0  0  0  0  0
    7.9086    0.6541   -1.1831 C   0  0  0  0  0  0  0  0  0  0  0  0
   -6.3081   -0.5240    0.0751 C   0  0  0  0  0  0  0  0  0  0  0  0
    0.8309   -3.0050    0.2560 C   0  0  0  0  0  0  0  0  0  0  0  0
   -6.7435    0.8014   -0.0064 C   0  0  0  0  0  0  0  0  0  0  0  0
   -7.2782   -1.5469    0.1294 C   0  0  0  0  0  0  0  0  0  0  0  0
   -8.0977    1.1540   -0.0359 C   0  0  0  0  0  0  0  0  0  0  0  0
    1.4576   -3.3068   -1.1017 C   0  0  0  0  0  0  0  0  0  0  0  0
   -8.6362   -1.2091    0.1005 C   0  0  0  0  0  0  0  0  0  0  0  0
   -9.0377    0.1218    0.0190 C   0  0  0  0  0  0  0  0  0  0  0  0
  -10.4316    0.4395   -0.0084 C   0  0  0  0  0  0  0  0  0  0  0  0
    4.2551    1.6256    0.3670 H   0  0  0  0  0  0  0  0  0  0  0  0
    4.0220    0.8621   -1.9916 H   0  0  0  0  0  0  0  0  0  0  0  0
    3.8608   -0.8128   -1.4460 H   0  0  0  0  0  0  0  0  0  0  0  0
    3.9518   -1.3288    1.1295 H   0  0  0  0  0  0  0  0  0  0  0  0
    4.1910    0.0046    2.2661 H   0  0  0  0  0  0  0  0  0  0  0  0
    1.8567   -0.6624    2.1650 H   0  0  0  0  0  0  0  0  0  0  0  0
    2.0829    1.0288    1.7119 H   0  0  0  0  0  0  0  0  0  0  0  0
    1.9794    1.5536   -0.9527 H   0  0  0  0  0  0  0  0  0  0  0  0
    1.6980    0.1429   -1.9830 H   0  0  0  0  0  0  0  0  0  0  0  0
    6.0008    0.6814   -2.0544 H   0  0  0  0  0  0  0  0  0  0  0  0
    6.2869    2.0622   -0.9666 H   0  0  0  0  0  0  0  0  0  0  0  0
    6.3992    1.6403    1.5294 H   0  0  0  0  0  0  0  0  0  0  0  0
    6.1814   -0.0207    2.1276 H   0  0  0  0  0  0  0  0  0  0  0  0
   -0.3445    1.4931   -0.0072 H   0  0  0  0  0  0  0  0  0  0  0  0
   -3.0128    1.7532    2.1394 H   0  0  0  0  0  0  0  0  0  0  0  0
   -1.8809    2.7412    1.2086 H   0  0  0  0  0  0  0  0  0  0  0  0
   -1.8666    2.5875   -1.3865 H   0  0  0  0  0  0  0  0  0  0  0  0
   -2.9901    1.4972   -2.2067 H   0  0  0  0  0  0  0  0  0  0  0  0
   -3.5989    3.1216    1.1867 H   0  0  0  0  0  0  0  0  0  0  0  0
   -3.5843    2.9680   -1.4274 H   0  0  0  0  0  0  0  0  0  0  0  0
   -1.8305   -3.2303    0.2561 H   0  0  0  0  0  0  0  0  0  0  0  0
    8.3705    1.2417   -1.9831 H   0  0  0  0  0  0  0  0  0  0  0  0
    8.0786   -0.4057   -1.4097 H   0  0  0  0  0  0  0  0  0  0  0  0
    8.1863   -0.8094    0.9851 H   0  0  0  0  0  0  0  0  0  0  0  0
    8.5499    0.5641    2.0382 H   0  0  0  0  0  0  0  0  0  0  0  0
   -5.6354    2.6071   -0.1070 H   0  0  0  0  0  0  0  0  0  0  0  0
    0.3459   -3.9171    0.6268 H   0  0  0  0  0  0  0  0  0  0  0  0
    1.6149   -2.7846    0.9888 H   0  0  0  0  0  0  0  0  0  0  0  0
   -6.9859   -2.5909    0.1930 H   0  0  0  0  0  0  0  0  0  0  0  0
   -8.3974    2.1960   -0.0996 H   0  0  0  0  0  0  0  0  0  0  0  0
    2.0173   -2.4573   -1.4998 H   0  0  0  0  0  0  0  0  0  0  0  0
    2.1501   -4.1502   -1.0145 H   0  0  0  0  0  0  0  0  0  0  0  0
    0.6907   -3.5749   -1.8366 H   0  0  0  0  0  0  0  0  0  0  0  0
   -9.3731   -2.0086    0.1431 H   0  0  0  0  0  0  0  0  0  0  0  0
  1 26  1  0  0  0  0
  1 27  1  0  0  0  0
  2 25  2  0  0  0  0
  3 10  1  0  0  0  0
  3 11  1  0  0  0  0
  3 13  1  0  0  0  0
  4  7  1  0  0  0  0
  4 16  1  0  0  0  0
  4 17  1  0  0  0  0
  5 15  1  0  0  0  0
  5 30  2  0  0  0  0
  5 62  1  0  0  0  0
  6 36  3  0  0  0  0
  7  8  1  0  0  0  0
  7  9  1  0  0  0  0
  7 37  1  1  0  0  0
  8 11  1  0  0  0  0
  8 40  1  0  0  0  0
  8 41  1  0  0  0  0
  9 10  1  0  0  0  0
  9 38  1  0  0  0  0
  9 39  1  0  0  0  0
 10 44  1  0  0  0  0
 10 45  1  0  0  0  0
 11 42  1  0  0  0  0
 11 43  1  0  0  0  0
 12 14  1  0  0  0  0
 12 15  1  0  0  0  0
 12 22  1  0  0  0  0
 12 23  1  0  0  0  0
 13 18  2  0  0  0  0
 13 20  1  0  0  0  0
 14 18  1  0  0  0  0
 14 19  2  0  0  0  0
 15 21  1  6  0  0  0
 16 26  1  0  0  0  0
 16 48  1  0  0  0  0
 16 49  1  0  0  0  0
 17 27  1  0  0  0  0
 17 46  1  0  0  0  0
 17 47  1  0  0  0  0
 18 50  1  0  0  0  0
 19 24  1  0  0  0  0
 19 25  1  0  0  0  0
 20 24  2  0  0  0  0
 20 29  1  0  0  0  0
 21 25  1  0  0  0  0
 21 28  2  0  0  0  0
 22 53  1  0  0  0  0
 22 54  1  0  0  0  0
 22 56  1  0  0  0  0
 23 51  1  0  0  0  0
 23 52  1  0  0  0  0
 23 55  1  0  0  0  0
 24 57  1  0  0  0  0
 26 60  1  0  0  0  0
 26 61  1  0  0  0  0
 27 58  1  0  0  0  0
 27 59  1  0  0  0  0
 28 30  1  0  0  0  0
 28 31  1  0  0  0  0
 29 33  1  0  0  0  0
 29 63  1  0  0  0  0
 29 64  1  0  0  0  0
 30 32  1  0  0  0  0
 31 34  2  0  0  0  0
 31 65  1  0  0  0  0
 32 35  2  0  0  0  0
 32 66  1  0  0  0  0
 33 67  1  0  0  0  0
 33 68  1  0  0  0  0
 33 69  1  0  0  0  0
 34 35  1  0  0  0  0
 34 70  1  0  0  0  0
 35 36  1  0  0  0  0
M  END
