DB11117
 OpenBabel07062211533D

 33 32  0  0  0  0  0  0  0  0999 V2000
   -6.9540   -0.6424    0.1289 O   0  0  0  0  0  0  0  0  0  0  0  0
   -5.9604    1.3949   -0.0371 O   0  0  0  0  0  0  0  0  0  0  0  0
   -0.8048    0.4865   -0.0168 C   0  0  0  0  0  0  0  0  0  0  0  0
    0.5174   -0.2833   -0.0737 C   0  0  0  0  0  0  0  0  0  0  0  0
   -2.0368   -0.4244   -0.0490 C   0  0  0  0  0  0  0  0  0  0  0  0
    1.7497    0.6270   -0.0536 C   0  0  0  0  0  0  0  0  0  0  0  0
    3.0738   -0.1428   -0.0352 C   0  0  0  0  0  0  0  0  0  0  0  0
   -3.3608    0.3461   -0.0184 C   0  0  0  0  0  0  0  0  0  0  0  0
    4.2679    0.8150    0.0566 C   0  0  0  0  0  0  0  0  0  0  0  0
   -4.5724   -0.5816    0.0159 C   0  0  0  0  0  0  0  0  0  0  0  0
    5.6352    0.1881    0.0600 C   0  0  0  0  0  0  0  0  0  0  0  0
   -5.8767    0.1755    0.0292 C   0  0  0  0  0  0  0  0  0  0  0  0
    5.9332   -1.1161    0.0424 C   0  0  0  0  0  0  0  0  0  0  0  0
   -0.8301    1.0942    0.8961 H   0  0  0  0  0  0  0  0  0  0  0  0
   -0.8512    1.1831   -0.8629 H   0  0  0  0  0  0  0  0  0  0  0  0
    0.5654   -0.9731    0.7780 H   0  0  0  0  0  0  0  0  0  0  0  0
    0.5408   -0.8985   -0.9814 H   0  0  0  0  0  0  0  0  0  0  0  0
   -2.0036   -1.0457   -0.9526 H   0  0  0  0  0  0  0  0  0  0  0  0
   -1.9966   -1.1082    0.8079 H   0  0  0  0  0  0  0  0  0  0  0  0
    1.7239    1.2869   -0.9295 H   0  0  0  0  0  0  0  0  0  0  0  0
    1.6980    1.2734    0.8316 H   0  0  0  0  0  0  0  0  0  0  0  0
   -3.3793    1.0030    0.8604 H   0  0  0  0  0  0  0  0  0  0  0  0
   -3.4192    0.9999   -0.8976 H   0  0  0  0  0  0  0  0  0  0  0  0
    3.0802   -0.8277    0.8215 H   0  0  0  0  0  0  0  0  0  0  0  0
    3.1477   -0.7525   -0.9440 H   0  0  0  0  0  0  0  0  0  0  0  0
    4.1743    1.4187    0.9680 H   0  0  0  0  0  0  0  0  0  0  0  0
    4.2263    1.5137   -0.7884 H   0  0  0  0  0  0  0  0  0  0  0  0
   -4.5679   -1.2311   -0.8664 H   0  0  0  0  0  0  0  0  0  0  0  0
   -4.5326   -1.2054    0.9158 H   0  0  0  0  0  0  0  0  0  0  0  0
    6.4668    0.8899    0.0840 H   0  0  0  0  0  0  0  0  0  0  0  0
    6.9695   -1.4374    0.0498 H   0  0  0  0  0  0  0  0  0  0  0  0
    5.1720   -1.8864    0.0212 H   0  0  0  0  0  0  0  0  0  0  0  0
   -7.7960   -0.1391    0.1393 H   0  0  0  0  0  0  0  0  0  0  0  0
  1 12  1  0  0  0  0
  1 33  1  0  0  0  0
  2 12  2  0  0  0  0
  3  4  1  0  0  0  0
  3  5  1  0  0  0  0
  3 14  1  0  0  0  0
  3 15  1  0  0  0  0
  4  6  1  0  0  0  0
  4 16  1  0  0  0  0
  4 17  1  0  0  0  0
  5  8  1  0  0  0  0
  5 18  1  0  0  0  0
  5 19  1  0  0  0  0
  6  7  1  0  0  0  0
  6 20  1  0  0  0  0
  6 21  1  0  0  0  0
  7  9  1  0  0  0  0
  7 24  1  0  0  0  0
  7 25  1  0  0  0  0
  8 10  1  0  0  0  0
  8 22  1  0  0  0  0
  8 23  1  0  0  0  0
  9 11  1  0  0  0  0
  9 26  1  0  0  0  0
  9 27  1  0  0  0  0
 10 12  1  0  0  0  0
 10 28  1  0  0  0  0
 10 29  1  0  0  0  0
 11 13  2  0  0  0  0
 11 30  1  0  0  0  0
 13 31  1  0  0  0  0
 13 32  1  0  0  0  0
M  END
