DB11757
 OpenBabel07062211533D

 52 54  0  0  0  0  0  0  0  0999 V2000
   -3.6833   -2.7645    0.5532 O   0  0  0  0  0  0  0  0  0  0  0  0
   -6.0765    1.0377   -0.7979 O   0  0  0  0  0  0  0  0  0  0  0  0
    5.9040   -1.1656   -1.1185 O   0  0  0  0  0  0  0  0  0  0  0  0
    7.2909    0.8115    0.2560 O   0  0  0  0  0  0  0  0  0  0  0  0
   -3.7522    1.1465   -0.8011 N   0  0  0  0  0  0  0  0  0  0  0  0
   -1.2282   -1.1365    0.0278 N   0  0  0  0  0  0  0  0  0  0  0  0
   -4.9030   -0.8731   -0.1205 N   0  0  0  0  0  0  0  0  0  0  0  0
   -1.2996    0.9690   -0.7014 N   0  0  0  0  0  0  0  0  0  0  0  0
   -2.5505   -0.8214   -0.1011 C   0  0  0  0  0  0  0  0  0  0  0  0
   -2.5658    0.4715   -0.5486 C   0  0  0  0  0  0  0  0  0  0  0  0
   -3.7163   -1.6046    0.1512 C   0  0  0  0  0  0  0  0  0  0  0  0
   -4.9892    0.4868   -0.5916 C   0  0  0  0  0  0  0  0  0  0  0  0
   -0.5147   -0.0268   -0.3453 C   0  0  0  0  0  0  0  0  0  0  0  0
   -3.7169    2.5251   -1.2738 C   0  0  0  0  0  0  0  0  0  0  0  0
   -6.1660   -1.5701    0.1001 C   0  0  0  0  0  0  0  0  0  0  0  0
   -0.6963   -2.4062    0.4735 C   0  0  0  0  0  0  0  0  0  0  0  0
   -3.7265    3.5074   -0.1209 C   0  0  0  0  0  0  0  0  0  0  0  0
    0.8924   -0.0837   -0.3060 C   0  0  0  0  0  0  0  0  0  0  0  0
   -6.6675   -1.3750    1.5160 C   0  0  0  0  0  0  0  0  0  0  0  0
    1.6936    0.9739   -0.0185 C   0  0  0  0  0  0  0  0  0  0  0  0
    3.1656    0.9279    0.0524 C   0  0  0  0  0  0  0  0  0  0  0  0
    3.8420   -0.1064   -0.5729 C   0  0  0  0  0  0  0  0  0  0  0  0
    3.8418    1.9201    0.7426 C   0  0  0  0  0  0  0  0  0  0  0  0
    5.2346   -0.1496   -0.5062 C   0  0  0  0  0  0  0  0  0  0  0  0
    5.9309    0.8420    0.1850 C   0  0  0  0  0  0  0  0  0  0  0  0
    5.2344    1.8767    0.8095 C   0  0  0  0  0  0  0  0  0  0  0  0
    5.1186   -2.1389   -1.8041 C   0  0  0  0  0  0  0  0  0  0  0  0
    7.8669    0.1056    1.3534 C   0  0  0  0  0  0  0  0  0  0  0  0
   -2.8345    2.6775   -1.9058 H   0  0  0  0  0  0  0  0  0  0  0  0
   -4.5953    2.7051   -1.9040 H   0  0  0  0  0  0  0  0  0  0  0  0
   -6.9187   -1.2074   -0.6084 H   0  0  0  0  0  0  0  0  0  0  0  0
   -6.0340   -2.6404   -0.0943 H   0  0  0  0  0  0  0  0  0  0  0  0
    0.2396   -2.2548    1.0160 H   0  0  0  0  0  0  0  0  0  0  0  0
   -1.3920   -2.8795    1.1678 H   0  0  0  0  0  0  0  0  0  0  0  0
   -0.5394   -3.0378   -0.4040 H   0  0  0  0  0  0  0  0  0  0  0  0
   -4.6193    3.3796    0.5002 H   0  0  0  0  0  0  0  0  0  0  0  0
   -2.8513    3.3705    0.5229 H   0  0  0  0  0  0  0  0  0  0  0  0
   -3.7159    4.5355   -0.4956 H   0  0  0  0  0  0  0  0  0  0  0  0
    1.3419   -1.0539   -0.4899 H   0  0  0  0  0  0  0  0  0  0  0  0
   -5.9468   -1.7558    2.2472 H   0  0  0  0  0  0  0  0  0  0  0  0
   -6.8334   -0.3150    1.7346 H   0  0  0  0  0  0  0  0  0  0  0  0
   -7.6137   -1.9052    1.6623 H   0  0  0  0  0  0  0  0  0  0  0  0
    1.2406    1.9395    0.1985 H   0  0  0  0  0  0  0  0  0  0  0  0
    3.2822   -0.8433   -1.1320 H   0  0  0  0  0  0  0  0  0  0  0  0
    3.3133    2.7320    1.2349 H   0  0  0  0  0  0  0  0  0  0  0  0
    5.7704    2.6529    1.3491 H   0  0  0  0  0  0  0  0  0  0  0  0
    4.4582   -2.6825   -1.1198 H   0  0  0  0  0  0  0  0  0  0  0  0
    5.8135   -2.8749   -2.2222 H   0  0  0  0  0  0  0  0  0  0  0  0
    4.5783   -1.6998   -2.6497 H   0  0  0  0  0  0  0  0  0  0  0  0
    7.5710   -0.9481    1.3321 H   0  0  0  0  0  0  0  0  0  0  0  0
    7.5668    0.5614    2.3022 H   0  0  0  0  0  0  0  0  0  0  0  0
    8.9553    0.1649    1.2657 H   0  0  0  0  0  0  0  0  0  0  0  0
  1 11  2  0  0  0  0
  2 12  2  0  0  0  0
  3 24  1  0  0  0  0
  3 27  1  0  0  0  0
  4 25  1  0  0  0  0
  4 28  1  0  0  0  0
  5 10  2  0  0  0  0
  5 12  1  0  0  0  0
  5 14  1  0  0  0  0
  6  9  2  0  0  0  0
  6 13  1  0  0  0  0
  6 16  1  0  0  0  0
  7 11  1  0  0  0  0
  7 12  1  0  0  0  0
  7 15  1  0  0  0  0
  8 10  1  0  0  0  0
  8 13  2  0  0  0  0
  9 10  1  0  0  0  0
  9 11  1  0  0  0  0
 13 18  1  0  0  0  0
 14 17  1  0  0  0  0
 14 29  1  0  0  0  0
 14 30  1  0  0  0  0
 15 19  1  0  0  0  0
 15 31  1  0  0  0  0
 15 32  1  0  0  0  0
 16 33  1  0  0  0  0
 16 34  1  0  0  0  0
 16 35  1  0  0  0  0
 17 36  1  0  0  0  0
 17 37  1  0  0  0  0
 17 38  1  0  0  0  0
 18 20  2  0  0  0  0
 18 39  1  0  0  0  0
 19 40  1  0  0  0  0
 19 41  1  0  0  0  0
 19 42  1  0  0  0  0
 20 21  1  0  0  0  0
 20 43  1  0  0  0  0
 21 22  2  0  0  0  0
 21 23  1  0  0  0  0
 22 24  1  0  0  0  0
 22 44  1  0  0  0  0
 23 26  2  0  0  0  0
 23 45  1  0  0  0  0
 24 25  2  0  0  0  0
 25 26  1  0  0  0  0
 26 46  1  0  0  0  0
 27 47  1  0  0  0  0
 27 48  1  0  0  0  0
 27 49  1  0  0  0  0
 28 50  1  0  0  0  0
 28 51  1  0  0  0  0
 28 52  1  0  0  0  0
M  END
