DB11901
 OpenBabel07062211533D

 48 51  0  0  0  0  0  0  0  0999 V2000
   -1.1363    1.6580    1.4387 S   0  0  0  0  0  0  0  0  0  0  0  0
    2.9541    3.1464   -1.0017 F   0  0  0  0  0  0  0  0  0  0  0  0
   -4.5703    3.8298   -0.2790 F   0  0  0  0  0  0  0  0  0  0  0  0
   -6.4443    3.2443   -1.2006 F   0  0  0  0  0  0  0  0  0  0  0  0
   -6.3272    3.4910    0.9567 F   0  0  0  0  0  0  0  0  0  0  0  0
   -2.5885   -2.6793   -0.7972 O   0  0  0  0  0  0  0  0  0  0  0  0
    5.4925    2.5562   -1.2902 O   0  0  0  0  0  0  0  0  0  0  0  0
    0.0829   -0.5217    0.2090 N   0  0  0  0  0  0  0  0  0  0  0  0
   -2.2205   -0.5583    0.1486 N   0  0  0  0  0  0  0  0  0  0  0  0
   -5.9242   -0.7400    0.3656 N   0  0  0  0  0  0  0  0  0  0  0  0
    6.2798    1.1901    0.4097 N   0  0  0  0  0  0  0  0  0  0  0  0
   -8.7601    1.0780    0.2790 N   0  0  0  0  0  0  0  0  0  0  0  0
   -0.2950   -1.9315   -0.1375 C   0  0  0  0  0  0  0  0  0  0  0  0
    0.4822   -2.6540   -1.2627 C   0  0  0  0  0  0  0  0  0  0  0  0
    0.1532   -3.0411    0.8472 C   0  0  0  0  0  0  0  0  0  0  0  0
    0.5415   -3.9055   -0.3664 C   0  0  0  0  0  0  0  0  0  0  0  0
   -1.8556   -1.8204   -0.3124 C   0  0  0  0  0  0  0  0  0  0  0  0
   -1.1010    0.2263    0.5476 C   0  0  0  0  0  0  0  0  0  0  0  0
    1.3945    0.0333    0.0434 C   0  0  0  0  0  0  0  0  0  0  0  0
   -3.5894   -0.1447    0.1662 C   0  0  0  0  0  0  0  0  0  0  0  0
    1.5452    1.3446   -0.4078 C   0  0  0  0  0  0  0  0  0  0  0  0
    2.5197   -0.7378    0.3341 C   0  0  0  0  0  0  0  0  0  0  0  0
   -3.9360    1.1935    0.0154 C   0  0  0  0  0  0  0  0  0  0  0  0
   -4.6121   -1.0641    0.3369 C   0  0  0  0  0  0  0  0  0  0  0  0
    2.8212    1.8848   -0.5678 C   0  0  0  0  0  0  0  0  0  0  0  0
    3.7958   -0.1977    0.1739 C   0  0  0  0  0  0  0  0  0  0  0  0
    3.9464    1.1134   -0.2771 C   0  0  0  0  0  0  0  0  0  0  0  0
   -5.2755    1.5660    0.0394 C   0  0  0  0  0  0  0  0  0  0  0  0
   -6.2226    0.5700    0.2159 C   0  0  0  0  0  0  0  0  0  0  0  0
    5.2789    1.6734   -0.4407 C   0  0  0  0  0  0  0  0  0  0  0  0
   -5.6451    3.0014   -0.1197 C   0  0  0  0  0  0  0  0  0  0  0  0
   -7.6224    0.8502    0.2507 C   0  0  0  0  0  0  0  0  0  0  0  0
    7.6453    1.6630    0.3859 C   0  0  0  0  0  0  0  0  0  0  0  0
    1.4656   -2.2607   -1.5303 H   0  0  0  0  0  0  0  0  0  0  0  0
   -0.0735   -2.7974   -2.1957 H   0  0  0  0  0  0  0  0  0  0  0  0
   -0.6501   -3.4722    1.4561 H   0  0  0  0  0  0  0  0  0  0  0  0
    0.9701   -2.8047    1.5313 H   0  0  0  0  0  0  0  0  0  0  0  0
   -0.2092   -4.6617   -0.6222 H   0  0  0  0  0  0  0  0  0  0  0  0
    1.5207   -4.3874   -0.3015 H   0  0  0  0  0  0  0  0  0  0  0  0
    0.7019    1.9565   -0.7106 H   0  0  0  0  0  0  0  0  0  0  0  0
    2.4649   -1.7571    0.6874 H   0  0  0  0  0  0  0  0  0  0  0  0
   -3.2026    1.9514   -0.2308 H   0  0  0  0  0  0  0  0  0  0  0  0
   -4.4369   -2.1188    0.5151 H   0  0  0  0  0  0  0  0  0  0  0  0
    4.6477   -0.8378    0.3854 H   0  0  0  0  0  0  0  0  0  0  0  0
    6.0443    0.5302    1.1437 H   0  0  0  0  0  0  0  0  0  0  0  0
    8.3005    0.8471    0.6998 H   0  0  0  0  0  0  0  0  0  0  0  0
    7.7321    2.4966    1.0872 H   0  0  0  0  0  0  0  0  0  0  0  0
    7.9175    1.9981   -0.6179 H   0  0  0  0  0  0  0  0  0  0  0  0
  1 18  2  0  0  0  0
  2 25  1  0  0  0  0
  3 31  1  0  0  0  0
  4 31  1  0  0  0  0
  5 31  1  0  0  0  0
  6 17  2  0  0  0  0
  7 30  2  0  0  0  0
  8 13  1  0  0  0  0
  8 18  1  0  0  0  0
  8 19  1  0  0  0  0
  9 17  1  0  0  0  0
  9 18  1  0  0  0  0
  9 20  1  0  0  0  0
 10 24  2  0  0  0  0
 10 29  1  0  0  0  0
 11 30  1  0  0  0  0
 11 33  1  0  0  0  0
 11 45  1  0  0  0  0
 12 32  3  0  0  0  0
 13 14  1  0  0  0  0
 13 15  1  0  0  0  0
 13 17  1  0  0  0  0
 14 16  1  0  0  0  0
 14 34  1  0  0  0  0
 14 35  1  0  0  0  0
 15 16  1  0  0  0  0
 15 36  1  0  0  0  0
 15 37  1  0  0  0  0
 16 38  1  0  0  0  0
 16 39  1  0  0  0  0
 19 21  2  0  0  0  0
 19 22  1  0  0  0  0
 20 23  2  0  0  0  0
 20 24  1  0  0  0  0
 21 25  1  0  0  0  0
 21 40  1  0  0  0  0
 22 26  2  0  0  0  0
 22 41  1  0  0  0  0
 23 28  1  0  0  0  0
 23 42  1  0  0  0  0
 24 43  1  0  0  0  0
 25 27  2  0  0  0  0
 26 27  1  0  0  0  0
 26 44  1  0  0  0  0
 27 30  1  0  0  0  0
 28 29  2  0  0  0  0
 28 31  1  0  0  0  0
 29 32  1  0  0  0  0
 33 46  1  0  0  0  0
 33 47  1  0  0  0  0
 33 48  1  0  0  0  0
M  END
