DB11637
 OpenBabel07062211533D

 63 67  0  0  1  0  0  0  0  0999 V2000
   10.5772    0.8062   -0.4561 F   0  0  0  0  0  0  0  0  0  0  0  0
   12.1072   -0.0012    0.8791 F   0  0  0  0  0  0  0  0  0  0  0  0
   10.6576    1.4349    1.6611 F   0  0  0  0  0  0  0  0  0  0  0  0
   -7.2207    0.3252    1.5734 O   0  0  0  0  0  0  0  0  0  0  0  0
    4.9928   -1.0286   -1.1846 O   0  0  0  0  0  0  0  0  0  0  0  0
   -4.2080    1.8228    0.1310 O   0  0  0  0  0  0  0  0  0  0  0  0
   -9.5738   -4.1825   -1.0473 O   0  0  0  0  0  0  0  0  0  0  0  0
   -9.9838   -3.9527    1.1000 O   0  0  0  0  0  0  0  0  0  0  0  0
    9.9772   -0.6916    1.1649 O   0  0  0  0  0  0  0  0  0  0  0  0
    1.1200    0.2968   -0.3527 N   0  0  0  0  0  0  0  0  0  0  0  0
   -7.4063   -0.7224   -0.4072 N   0  0  0  0  0  0  0  0  0  0  0  0
   -8.4970   -1.6910    1.2523 N   0  0  0  0  0  0  0  0  0  0  0  0
   -9.4335   -3.5518    0.0370 N   0  0  0  0  0  0  0  0  0  0  0  0
   -6.4372    1.1062    0.6048 C   0  0  2  0  0  0  0  0  0  0  0  0
    3.9217   -0.3796   -0.5098 C   0  0  2  0  0  0  0  0  0  0  0  0
    2.8706   -1.4204   -0.1409 C   0  0  0  0  0  0  0  0  0  0  0  0
    3.3075    0.6825   -1.4165 C   0  0  0  0  0  0  0  0  0  0  0  0
    1.6424   -0.7782    0.4994 C   0  0  0  0  0  0  0  0  0  0  0  0
    2.0829    1.3258   -0.7724 C   0  0  0  0  0  0  0  0  0  0  0  0
   -6.5647    0.3854   -0.7709 C   0  0  0  0  0  0  0  0  0  0  0  0
   -4.9890    1.1380    1.0920 C   0  0  0  0  0  0  0  0  0  0  0  0
   -7.0248    2.5156    0.5574 C   0  0  0  0  0  0  0  0  0  0  0  0
   -0.2212    0.6805   -0.2310 C   0  0  0  0  0  0  0  0  0  0  0  0
   -7.7309   -0.6946    0.8993 C   0  0  2  0  0  0  0  0  0  0  0  0
   -7.9735   -1.7875   -0.9900 C   0  0  0  0  0  0  0  0  0  0  0  0
   -0.9075    1.1784   -1.3386 C   0  0  0  0  0  0  0  0  0  0  0  0
   -0.8707    0.5651    0.9980 C   0  0  0  0  0  0  0  0  0  0  0  0
   -2.8929    1.4457    0.0118 C   0  0  0  0  0  0  0  0  0  0  0  0
   -8.6544   -2.3871    0.0611 C   0  0  0  0  0  0  0  0  0  0  0  0
   -2.2433    1.5610   -1.2173 C   0  0  0  0  0  0  0  0  0  0  0  0
   -2.2067    0.9477    1.1194 C   0  0  0  0  0  0  0  0  0  0  0  0
    6.2299   -0.9451   -0.6019 C   0  0  0  0  0  0  0  0  0  0  0  0
    6.8189    0.3018   -0.3913 C   0  0  0  0  0  0  0  0  0  0  0  0
    6.9004   -2.1067   -0.2188 C   0  0  0  0  0  0  0  0  0  0  0  0
    8.0782    0.3870    0.2023 C   0  0  0  0  0  0  0  0  0  0  0  0
    8.1597   -2.0216    0.3750 C   0  0  0  0  0  0  0  0  0  0  0  0
    8.7485   -0.7748    0.5855 C   0  0  0  0  0  0  0  0  0  0  0  0
   10.8178    0.4005    0.8089 C   0  0  0  0  0  0  0  0  0  0  0  0
    4.2641    0.0994    0.4188 H   0  0  0  0  0  0  0  0  0  0  0  0
    2.5731   -1.9745   -1.0413 H   0  0  0  0  0  0  0  0  0  0  0  0
    3.3020   -2.1658    0.5382 H   0  0  0  0  0  0  0  0  0  0  0  0
    4.0505    1.4509   -1.6585 H   0  0  0  0  0  0  0  0  0  0  0  0
    3.0274    0.2266   -2.3756 H   0  0  0  0  0  0  0  0  0  0  0  0
    0.8900   -1.5636    0.6434 H   0  0  0  0  0  0  0  0  0  0  0  0
    1.9079   -0.3776    1.4858 H   0  0  0  0  0  0  0  0  0  0  0  0
    2.3842    1.9155    0.1026 H   0  0  0  0  0  0  0  0  0  0  0  0
    1.6468    2.0251   -1.4950 H   0  0  0  0  0  0  0  0  0  0  0  0
   -7.0771    0.9796   -1.5325 H   0  0  0  0  0  0  0  0  0  0  0  0
   -5.6227   -0.0118   -1.1590 H   0  0  0  0  0  0  0  0  0  0  0  0
   -4.9215    1.6470    2.0617 H   0  0  0  0  0  0  0  0  0  0  0  0
   -4.6578    0.1001    1.2373 H   0  0  0  0  0  0  0  0  0  0  0  0
   -8.0874    2.4840    0.2903 H   0  0  0  0  0  0  0  0  0  0  0  0
   -6.5073    3.1508   -0.1686 H   0  0  0  0  0  0  0  0  0  0  0  0
   -6.9701    2.9939    1.5417 H   0  0  0  0  0  0  0  0  0  0  0  0
   -7.8651   -2.0338   -2.0369 H   0  0  0  0  0  0  0  0  0  0  0  0
   -0.4233    1.2622   -2.3083 H   0  0  0  0  0  0  0  0  0  0  0  0
   -0.3609    0.2021    1.8859 H   0  0  0  0  0  0  0  0  0  0  0  0
   -2.7744    1.9448   -2.0840 H   0  0  0  0  0  0  0  0  0  0  0  0
   -2.6667    0.8718    2.1002 H   0  0  0  0  0  0  0  0  0  0  0  0
    6.3108    1.2158   -0.6850 H   0  0  0  0  0  0  0  0  0  0  0  0
    6.4459   -3.0805   -0.3797 H   0  0  0  0  0  0  0  0  0  0  0  0
    8.4840    1.3782    0.3810 H   0  0  0  0  0  0  0  0  0  0  0  0
    8.6770   -2.9299    0.6715 H   0  0  0  0  0  0  0  0  0  0  0  0
  1 38  1  0  0  0  0
  2 38  1  0  0  0  0
  3 38  1  0  0  0  0
  4 14  1  0  0  0  0
  5 15  1  0  0  0  0
  5 32  1  0  0  0  0
  6 21  1  0  0  0  0
  6 28  1  0  0  0  0
  7 13  1  0  0  0  0
  8 13  2  0  0  0  0
  9 37  1  0  0  0  0
  9 38  1  0  0  0  0
 10 18  1  0  0  0  0
 10 19  1  0  0  0  0
 10 23  1  0  0  0  0
 11 20  1  0  0  0  0
 11 24  1  0  0  0  0
 11 25  2  0  0  0  0
 12 24  1  0  0  0  0
 12 29  2  0  0  0  0
 13 29  1  0  0  0  0
 14 20  1  0  0  0  0
 14 21  1  1  0  0  0
 14 22  1  0  0  0  0
 15 16  1  0  0  0  0
 15 17  1  0  0  0  0
 15 39  1  1  0  0  0
 16 18  1  0  0  0  0
 16 40  1  0  0  0  0
 16 41  1  0  0  0  0
 17 19  1  0  0  0  0
 17 42  1  0  0  0  0
 17 43  1  0  0  0  0
 18 44  1  0  0  0  0
 18 45  1  0  0  0  0
 19 46  1  0  0  0  0
 19 47  1  0  0  0  0
 20 48  1  0  0  0  0
 20 49  1  0  0  0  0
 21 50  1  0  0  0  0
 21 51  1  0  0  0  0
 22 52  1  0  0  0  0
 22 53  1  0  0  0  0
 22 54  1  0  0  0  0
 23 26  2  0  0  0  0
 23 27  1  0  0  0  0
 24  4  1  6  0  0  0
 25 29  1  0  0  0  0
 25 55  1  0  0  0  0
 26 30  1  0  0  0  0
 26 56  1  0  0  0  0
 27 31  2  0  0  0  0
 27 57  1  0  0  0  0
 28 30  2  0  0  0  0
 28 31  1  0  0  0  0
 30 58  1  0  0  0  0
 31 59  1  0  0  0  0
 32 33  2  0  0  0  0
 32 34  1  0  0  0  0
 33 35  1  0  0  0  0
 33 60  1  0  0  0  0
 34 36  2  0  0  0  0
 34 61  1  0  0  0  0
 35 37  2  0  0  0  0
 35 62  1  0  0  0  0
 36 37  1  0  0  0  0
 36 63  1  0  0  0  0
M  END
