DB11656
 OpenBabel07062211533D

 41 43  0  0  1  0  0  0  0  0999 V2000
   -6.6913   -2.3282    0.0878 Cl  0  0  0  0  0  0  0  0  0  0  0  0
   -1.3777    3.9271   -0.3201 O   0  0  0  0  0  0  0  0  0  0  0  0
    0.4298   -2.9618   -2.3979 O   0  0  0  0  0  0  0  0  0  0  0  0
    0.8023    4.4203    0.0312 O   0  0  0  0  0  0  0  0  0  0  0  0
   -0.8866    0.3975    1.9939 O   0  0  0  0  0  0  0  0  0  0  0  0
   -1.0464    1.3171   -0.1163 N   0  0  0  0  0  0  0  0  0  0  0  0
    2.1756   -2.5616   -0.9562 N   0  0  0  0  0  0  0  0  0  0  0  0
    1.1742    1.6342   -1.1152 C   0  0  0  0  0  0  0  0  0  0  0  0
    0.1712    2.0851   -0.0498 C   0  0  1  0  0  0  0  0  0  0  0  0
    1.5160    0.1731   -1.0660 C   0  0  0  0  0  0  0  0  0  0  0  0
    2.6505   -0.2880   -0.2383 C   0  0  0  0  0  0  0  0  0  0  0  0
    2.9499   -1.6589   -0.2076 C   0  0  0  0  0  0  0  0  0  0  0  0
    0.8028   -0.7246   -1.7655 C   0  0  0  0  0  0  0  0  0  0  0  0
    3.4474    0.5801    0.5224 C   0  0  0  0  0  0  0  0  0  0  0  0
    1.1113   -2.1779   -1.7408 C   0  0  0  0  0  0  0  0  0  0  0  0
   -0.0853    3.5844   -0.1020 C   0  0  0  0  0  0  0  0  0  0  0  0
    4.0116   -2.1523    0.5578 C   0  0  0  0  0  0  0  0  0  0  0  0
   -1.5094    0.5010    0.9377 C   0  0  0  0  0  0  0  0  0  0  0  0
    4.5095    0.0896    1.2881 C   0  0  0  0  0  0  0  0  0  0  0  0
    4.7909   -1.2740    1.3057 C   0  0  0  0  0  0  0  0  0  0  0  0
   -2.7850   -0.1967    0.7281 C   0  0  0  0  0  0  0  0  0  0  0  0
   -3.5685   -0.5300    1.8237 C   0  0  0  0  0  0  0  0  0  0  0  0
   -3.1881   -0.5106   -0.5620 C   0  0  0  0  0  0  0  0  0  0  0  0
   -4.7805   -1.1912    1.6250 C   0  0  0  0  0  0  0  0  0  0  0  0
   -4.4002   -1.1716   -0.7608 C   0  0  0  0  0  0  0  0  0  0  0  0
   -5.1966   -1.5118    0.3327 C   0  0  0  0  0  0  0  0  0  0  0  0
    2.0729    2.2616   -1.1031 H   0  0  0  0  0  0  0  0  0  0  0  0
    0.7343    1.8529   -2.1008 H   0  0  0  0  0  0  0  0  0  0  0  0
    0.6159    1.9192    0.9396 H   0  0  0  0  0  0  0  0  0  0  0  0
   -0.0348   -0.4222   -2.3862 H   0  0  0  0  0  0  0  0  0  0  0  0
   -1.6218    1.4518   -0.9409 H   0  0  0  0  0  0  0  0  0  0  0  0
    3.2647    1.6500    0.5544 H   0  0  0  0  0  0  0  0  0  0  0  0
    2.4170   -3.5477   -0.9135 H   0  0  0  0  0  0  0  0  0  0  0  0
    4.2378   -3.2151    0.5772 H   0  0  0  0  0  0  0  0  0  0  0  0
    5.1153    0.7752    1.8738 H   0  0  0  0  0  0  0  0  0  0  0  0
    5.6162   -1.6515    1.9023 H   0  0  0  0  0  0  0  0  0  0  0  0
   -3.2619   -0.2839    2.8365 H   0  0  0  0  0  0  0  0  0  0  0  0
   -2.5842   -0.2902   -1.4366 H   0  0  0  0  0  0  0  0  0  0  0  0
   -1.4988    4.9001   -0.3519 H   0  0  0  0  0  0  0  0  0  0  0  0
   -5.3912   -1.4493    2.4864 H   0  0  0  0  0  0  0  0  0  0  0  0
   -4.7087   -1.4214   -1.7728 H   0  0  0  0  0  0  0  0  0  0  0  0
  1 26  1  0  0  0  0
  2 16  1  0  0  0  0
  2 39  1  0  0  0  0
  3 15  2  0  0  0  0
  4 16  2  0  0  0  0
  5 18  2  0  0  0  0
  6  9  1  0  0  0  0
  6 18  1  0  0  0  0
  6 31  1  0  0  0  0
  7 12  1  0  0  0  0
  7 15  1  0  0  0  0
  7 33  1  0  0  0  0
  8  9  1  0  0  0  0
  8 10  1  0  0  0  0
  8 27  1  0  0  0  0
  8 28  1  0  0  0  0
  9 16  1  0  0  0  0
  9 29  1  1  0  0  0
 10 11  1  0  0  0  0
 10 13  2  0  0  0  0
 11 12  2  0  0  0  0
 11 14  1  0  0  0  0
 12 17  1  0  0  0  0
 13 15  1  0  0  0  0
 13 30  1  0  0  0  0
 14 19  2  0  0  0  0
 14 32  1  0  0  0  0
 17 20  2  0  0  0  0
 17 34  1  0  0  0  0
 18 21  1  0  0  0  0
 19 20  1  0  0  0  0
 19 35  1  0  0  0  0
 20 36  1  0  0  0  0
 21 22  2  0  0  0  0
 21 23  1  0  0  0  0
 22 24  1  0  0  0  0
 22 37  1  0  0  0  0
 23 25  2  0  0  0  0
 23 38  1  0  0  0  0
 24 26  2  0  0  0  0
 24 40  1  0  0  0  0
 25 26  1  0  0  0  0
 25 41  1  0  0  0  0
M  END
