DB11235
 OpenBabel07062211533D

 43 44  0  0  0  0  0  0  0  0999 V2000
   -4.5323   -1.3568    0.8402 O   0  0  0  0  0  0  0  0  0  0  0  0
    1.4570   -0.4767   -1.0249 N   0  0  0  0  0  0  0  0  0  0  0  0
    1.6072    2.9364    0.4312 N   0  0  0  0  0  0  0  0  0  0  0  0
    1.6495   -2.7371   -0.4253 N   0  0  0  0  0  0  0  0  0  0  0  0
    3.1039   -1.0736    0.5364 N   0  0  0  0  0  0  0  0  0  0  0  0
    1.8473    0.9095   -0.9270 C   0  0  0  0  0  0  0  0  0  0  0  0
    1.2004    1.5377    0.3007 C   0  0  0  0  0  0  0  0  0  0  0  0
    0.3580   -0.8330   -1.9239 C   0  0  0  0  0  0  0  0  0  0  0  0
   -0.9472   -0.9730   -1.1863 C   0  0  0  0  0  0  0  0  0  0  0  0
    2.0972   -1.4714   -0.2724 C   0  0  0  0  0  0  0  0  0  0  0  0
    1.0179    3.5302    1.6307 C   0  0  0  0  0  0  0  0  0  0  0  0
    1.2198    3.6946   -0.7577 C   0  0  0  0  0  0  0  0  0  0  0  0
   -1.7685    0.1351   -1.0357 C   0  0  0  0  0  0  0  0  0  0  0  0
   -1.3096   -2.2082   -0.6681 C   0  0  0  0  0  0  0  0  0  0  0  0
   -2.9775    0.0056   -0.3521 C   0  0  0  0  0  0  0  0  0  0  0  0
   -2.5187   -2.3379    0.0155 C   0  0  0  0  0  0  0  0  0  0  0  0
   -3.3527   -1.2309    0.1733 C   0  0  0  0  0  0  0  0  0  0  0  0
    2.2882   -3.6687    0.3129 C   0  0  0  0  0  0  0  0  0  0  0  0
    3.6979   -2.0560    1.2449 C   0  0  0  0  0  0  0  0  0  0  0  0
    3.3287   -3.3838    1.1733 C   0  0  0  0  0  0  0  0  0  0  0  0
   -5.3361   -0.1844    0.9653 C   0  0  0  0  0  0  0  0  0  0  0  0
    2.9400    1.0101   -0.8916 H   0  0  0  0  0  0  0  0  0  0  0  0
    1.5379    1.4167   -1.8462 H   0  0  0  0  0  0  0  0  0  0  0  0
    0.1109    1.4610    0.2615 H   0  0  0  0  0  0  0  0  0  0  0  0
    1.5144    0.9922    1.1992 H   0  0  0  0  0  0  0  0  0  0  0  0
    0.5837   -1.7522   -2.4818 H   0  0  0  0  0  0  0  0  0  0  0  0
    0.2422   -0.0750   -2.7104 H   0  0  0  0  0  0  0  0  0  0  0  0
   -0.0775    3.5393    1.5932 H   0  0  0  0  0  0  0  0  0  0  0  0
    1.3281    2.9798    2.5261 H   0  0  0  0  0  0  0  0  0  0  0  0
    1.3671    4.5604    1.7626 H   0  0  0  0  0  0  0  0  0  0  0  0
    1.8533    3.4590   -1.6182 H   0  0  0  0  0  0  0  0  0  0  0  0
    0.1678    3.5459   -1.0277 H   0  0  0  0  0  0  0  0  0  0  0  0
    1.3680    4.7685   -0.5896 H   0  0  0  0  0  0  0  0  0  0  0  0
   -1.4928    1.1000   -1.4521 H   0  0  0  0  0  0  0  0  0  0  0  0
   -0.7089   -3.0974   -0.8187 H   0  0  0  0  0  0  0  0  0  0  0  0
   -3.5778    0.9050   -0.2683 H   0  0  0  0  0  0  0  0  0  0  0  0
   -2.8110   -3.3060    0.4130 H   0  0  0  0  0  0  0  0  0  0  0  0
    1.9275   -4.6843    0.1898 H   0  0  0  0  0  0  0  0  0  0  0  0
    4.5056   -1.7356    1.8942 H   0  0  0  0  0  0  0  0  0  0  0  0
    3.8228   -4.1513    1.7537 H   0  0  0  0  0  0  0  0  0  0  0  0
   -4.8283    0.5913    1.5486 H   0  0  0  0  0  0  0  0  0  0  0  0
   -6.2348   -0.4668    1.5232 H   0  0  0  0  0  0  0  0  0  0  0  0
   -5.6683    0.1818   -0.0120 H   0  0  0  0  0  0  0  0  0  0  0  0
  1 17  1  0  0  0  0
  1 21  1  0  0  0  0
  2  6  1  0  0  0  0
  2  8  1  0  0  0  0
  2 10  1  0  0  0  0
  3  7  1  0  0  0  0
  3 11  1  0  0  0  0
  3 12  1  0  0  0  0
  4 10  2  0  0  0  0
  4 18  1  0  0  0  0
  5 10  1  0  0  0  0
  5 19  2  0  0  0  0
  6  7  1  0  0  0  0
  6 22  1  0  0  0  0
  6 23  1  0  0  0  0
  7 24  1  0  0  0  0
  7 25  1  0  0  0  0
  8  9  1  0  0  0  0
  8 26  1  0  0  0  0
  8 27  1  0  0  0  0
  9 13  2  0  0  0  0
  9 14  1  0  0  0  0
 11 28  1  0  0  0  0
 11 29  1  0  0  0  0
 11 30  1  0  0  0  0
 12 31  1  0  0  0  0
 12 32  1  0  0  0  0
 12 33  1  0  0  0  0
 13 15  1  0  0  0  0
 13 34  1  0  0  0  0
 14 16  2  0  0  0  0
 14 35  1  0  0  0  0
 15 17  2  0  0  0  0
 15 36  1  0  0  0  0
 16 17  1  0  0  0  0
 16 37  1  0  0  0  0
 18 20  2  0  0  0  0
 18 38  1  0  0  0  0
 19 20  1  0  0  0  0
 19 39  1  0  0  0  0
 20 40  1  0  0  0  0
 21 41  1  0  0  0  0
 21 42  1  0  0  0  0
 21 43  1  0  0  0  0
M  END
