DB11327
 OpenBabel07062211533D

 24 25  0  0  1  0  0  0  0  0999 V2000
   -0.6089    2.2347   -0.5240 S   0  0  0  0  0  0  0  0  0  0  0  0
    0.4504    1.9838    1.2215 S   0  0  0  0  0  0  0  0  0  0  0  0
   -0.4099   -0.5900   -1.4947 O   0  0  0  0  0  0  0  0  0  0  0  0
    1.0871   -0.7618    2.2300 O   0  0  0  0  0  0  0  0  0  0  0  0
   -1.5226   -0.3357   -0.9236 N   0  0  0  0  0  0  0  0  0  0  0  0
    1.8721   -0.3770    1.3000 N   0  0  0  0  0  0  0  0  0  0  0  0
   -1.8088    0.9136   -0.4079 C   0  0  1  0  0  0  0  0  0  0  0  0
    1.7400    0.8652    0.7045 C   0  0  1  0  0  0  0  0  0  0  0  0
   -3.0271    1.1727    0.2114 C   0  0  0  0  0  0  0  0  0  0  0  0
    2.6082    1.2647   -0.3093 C   0  0  0  0  0  0  0  0  0  0  0  0
   -2.4688   -1.3368   -0.8170 C   0  0  0  0  0  0  0  0  0  0  0  0
    2.8793   -1.2226    0.8768 C   0  0  0  0  0  0  0  0  0  0  0  0
   -3.9725    0.1579    0.3131 C   0  0  0  0  0  0  0  0  0  0  0  0
    3.6187    0.4057   -0.7275 C   0  0  0  0  0  0  0  0  0  0  0  0
   -3.6946   -1.1033   -0.2024 C   0  0  0  0  0  0  0  0  0  0  0  0
    3.7571   -0.8439   -0.1335 C   0  0  0  0  0  0  0  0  0  0  0  0
   -3.2587    2.1531    0.6191 H   0  0  0  0  0  0  0  0  0  0  0  0
    2.5261    2.2407   -0.7801 H   0  0  0  0  0  0  0  0  0  0  0  0
   -2.1797   -2.2877   -1.2404 H   0  0  0  0  0  0  0  0  0  0  0  0
    2.9225   -2.1748    1.3854 H   0  0  0  0  0  0  0  0  0  0  0  0
   -4.9267    0.3498    0.7948 H   0  0  0  0  0  0  0  0  0  0  0  0
    4.3008    0.7112   -1.5154 H   0  0  0  0  0  0  0  0  0  0  0  0
   -4.4275   -1.9003   -0.1263 H   0  0  0  0  0  0  0  0  0  0  0  0
    4.5438   -1.5193   -0.4546 H   0  0  0  0  0  0  0  0  0  0  0  0
  1  2  1  0  0  0  0
  3  5  1  0  0  0  0
  4  6  1  0  0  0  0
  5  7  1  0  0  0  0
  5 11  1  0  0  0  0
  6  8  1  0  0  0  0
  6 12  1  0  0  0  0
  7  1  1  1  0  0  0
  7  9  1  0  0  0  0
  8  2  1  6  0  0  0
  8 10  1  0  0  0  0
  9 13  1  0  0  0  0
  9 17  1  0  0  0  0
 10 14  1  0  0  0  0
 10 18  1  0  0  0  0
 11 15  1  0  0  0  0
 11 19  1  0  0  0  0
 12 16  1  0  0  0  0
 12 20  1  0  0  0  0
 13 15  1  0  0  0  0
 13 21  1  0  0  0  0
 14 16  1  0  0  0  0
 14 22  1  0  0  0  0
 15 23  1  0  0  0  0
 16 24  1  0  0  0  0
M  END
