DB11932
 OpenBabel07062211533D

 26 27  0  0  0  0  0  0  0  0999 V2000
    1.3235    1.1493   -0.3300 N   0  0  0  0  0  0  0  0  0  0  0  0
   -1.3235   -1.1493   -0.3300 N   0  0  0  0  0  0  0  0  0  0  0  0
    0.7216   -0.0189   -0.0128 C   0  0  0  0  0  0  0  0  0  0  0  0
   -0.7216    0.0189   -0.0128 C   0  0  0  0  0  0  0  0  0  0  0  0
    3.4497    0.0342   -0.0451 C   0  0  0  0  0  0  0  0  0  0  0  0
   -3.4497   -0.0342   -0.0451 C   0  0  0  0  0  0  0  0  0  0  0  0
    1.4043   -1.1846    0.2950 C   0  0  0  0  0  0  0  0  0  0  0  0
   -1.4044    1.1846    0.2950 C   0  0  0  0  0  0  0  0  0  0  0  0
    2.7943   -1.1491    0.2763 C   0  0  0  0  0  0  0  0  0  0  0  0
   -2.7942    1.1491    0.2763 C   0  0  0  0  0  0  0  0  0  0  0  0
    2.6754    1.1453   -0.3381 C   0  0  0  0  0  0  0  0  0  0  0  0
   -2.6754   -1.1453   -0.3380 C   0  0  0  0  0  0  0  0  0  0  0  0
    4.9350    0.1046   -0.0735 C   0  0  0  0  0  0  0  0  0  0  0  0
   -4.9350   -0.1046   -0.0735 C   0  0  0  0  0  0  0  0  0  0  0  0
    0.9000   -2.1092    0.5565 H   0  0  0  0  0  0  0  0  0  0  0  0
   -0.9000    2.1093    0.5565 H   0  0  0  0  0  0  0  0  0  0  0  0
    3.3560   -2.0474    0.5172 H   0  0  0  0  0  0  0  0  0  0  0  0
   -3.3561    2.0474    0.5172 H   0  0  0  0  0  0  0  0  0  0  0  0
    3.1284    2.0980   -0.5947 H   0  0  0  0  0  0  0  0  0  0  0  0
   -3.1283   -2.0980   -0.5946 H   0  0  0  0  0  0  0  0  0  0  0  0
    5.3687   -0.8528   -0.3821 H   0  0  0  0  0  0  0  0  0  0  0  0
    5.2818    0.8591   -0.7876 H   0  0  0  0  0  0  0  0  0  0  0  0
    5.3190    0.3600    0.9190 H   0  0  0  0  0  0  0  0  0  0  0  0
   -5.2819   -0.8612   -0.7855 H   0  0  0  0  0  0  0  0  0  0  0  0
   -5.3191   -0.3572    0.9197 H   0  0  0  0  0  0  0  0  0  0  0  0
   -5.3685    0.8519   -0.3850 H   0  0  0  0  0  0  0  0  0  0  0  0
  1  3  2  0  0  0  0
  1 11  1  0  0  0  0
  2  4  2  0  0  0  0
  2 12  1  0  0  0  0
  3  4  1  0  0  0  0
  3  7  1  0  0  0  0
  4  8  1  0  0  0  0
  5  9  1  0  0  0  0
  5 11  2  0  0  0  0
  5 13  1  0  0  0  0
  6 10  1  0  0  0  0
  6 12  2  0  0  0  0
  6 14  1  0  0  0  0
  7  9  2  0  0  0  0
  7 15  1  0  0  0  0
  8 10  2  0  0  0  0
  8 16  1  0  0  0  0
  9 17  1  0  0  0  0
 10 18  1  0  0  0  0
 11 19  1  0  0  0  0
 12 20  1  0  0  0  0
 13 21  1  0  0  0  0
 13 22  1  0  0  0  0
 13 23  1  0  0  0  0
 14 24  1  0  0  0  0
 14 25  1  0  0  0  0
 14 26  1  0  0  0  0
M  END
