DB12978
 OpenBabel07062211533D

 44 47  0  0  0  0  0  0  0  0999 V2000
   -5.7803    3.8441    1.3813 Cl  0  0  0  0  0  0  0  0  0  0  0  0
    8.9674   -0.3204   -0.5832 F   0  0  0  0  0  0  0  0  0  0  0  0
    8.2519    0.5560   -2.4335 F   0  0  0  0  0  0  0  0  0  0  0  0
    8.7342    1.8356   -0.7427 F   0  0  0  0  0  0  0  0  0  0  0  0
   -5.5961   -0.8749   -1.9337 N   0  0  0  0  0  0  0  0  0  0  0  0
    2.0163   -0.6652    0.0809 N   0  0  0  0  0  0  0  0  0  0  0  0
   -6.4695    1.3546   -1.6693 N   0  0  0  0  0  0  0  0  0  0  0  0
    0.0408   -1.9127   -0.3882 N   0  0  0  0  0  0  0  0  0  0  0  0
    5.8711    1.4852   -1.0301 N   0  0  0  0  0  0  0  0  0  0  0  0
   -4.3844   -1.0703   -0.0777 C   0  0  0  0  0  0  0  0  0  0  0  0
   -3.4984   -1.6229    0.9664 C   0  0  0  0  0  0  0  0  0  0  0  0
   -4.9846    0.2166   -0.0839 C   0  0  0  0  0  0  0  0  0  0  0  0
   -2.0183   -1.3484    0.7460 C   0  0  0  0  0  0  0  0  0  0  0  0
   -5.7330    0.3067   -1.2539 C   0  0  0  0  0  0  0  0  0  0  0  0
   -4.7786   -1.7192   -1.2280 C   0  0  0  0  0  0  0  0  0  0  0  0
   -4.9848    1.3308    0.7707 C   0  0  0  0  0  0  0  0  0  0  0  0
   -1.3692   -0.3279    1.4323 C   0  0  0  0  0  0  0  0  0  0  0  0
   -1.2751   -2.1053   -0.1453 C   0  0  0  0  0  0  0  0  0  0  0  0
    0.6376   -0.9118    0.2973 C   0  0  0  0  0  0  0  0  0  0  0  0
    2.7290    0.3686    0.7580 C   0  0  0  0  0  0  0  0  0  0  0  0
   -0.0160   -0.0990    1.2094 C   0  0  0  0  0  0  0  0  0  0  0  0
    4.1598    0.4111    0.2975 C   0  0  0  0  0  0  0  0  0  0  0  0
   -5.7315    2.4439    0.3887 C   0  0  0  0  0  0  0  0  0  0  0  0
   -6.4334    2.3982   -0.8084 C   0  0  0  0  0  0  0  0  0  0  0  0
    5.0824   -0.5315    0.7378 C   0  0  0  0  0  0  0  0  0  0  0  0
    4.6005    1.3903   -0.5780 C   0  0  0  0  0  0  0  0  0  0  0  0
    6.3989   -0.4668    0.2951 C   0  0  0  0  0  0  0  0  0  0  0  0
    6.7395    0.5517   -0.5805 C   0  0  0  0  0  0  0  0  0  0  0  0
    8.1440    0.6513   -1.0756 C   0  0  0  0  0  0  0  0  0  0  0  0
   -3.6376   -2.7103    1.0392 H   0  0  0  0  0  0  0  0  0  0  0  0
   -3.7930   -1.2389    1.9521 H   0  0  0  0  0  0  0  0  0  0  0  0
   -4.5518   -2.7055   -1.6088 H   0  0  0  0  0  0  0  0  0  0  0  0
   -6.0316   -1.0902   -2.8198 H   0  0  0  0  0  0  0  0  0  0  0  0
   -4.4210    1.3217    1.6986 H   0  0  0  0  0  0  0  0  0  0  0  0
   -1.9070    0.2946    2.1420 H   0  0  0  0  0  0  0  0  0  0  0  0
   -1.7245   -2.9166   -0.7094 H   0  0  0  0  0  0  0  0  0  0  0  0
    2.7265    0.2088    1.8440 H   0  0  0  0  0  0  0  0  0  0  0  0
    2.2725    1.3490    0.5709 H   0  0  0  0  0  0  0  0  0  0  0  0
    0.4581    0.7029    1.7628 H   0  0  0  0  0  0  0  0  0  0  0  0
    2.4788   -1.2681   -0.5903 H   0  0  0  0  0  0  0  0  0  0  0  0
   -7.0249    3.2513   -1.1334 H   0  0  0  0  0  0  0  0  0  0  0  0
    4.7863   -1.3192    1.4250 H   0  0  0  0  0  0  0  0  0  0  0  0
    3.9288    2.1531   -0.9594 H   0  0  0  0  0  0  0  0  0  0  0  0
    7.1203   -1.2009    0.6372 H   0  0  0  0  0  0  0  0  0  0  0  0
  1 23  1  0  0  0  0
  2 29  1  0  0  0  0
  3 29  1  0  0  0  0
  4 29  1  0  0  0  0
  5 14  1  0  0  0  0
  5 15  2  0  0  0  0
  5 33  1  0  0  0  0
  6 19  1  0  0  0  0
  6 20  1  0  0  0  0
  6 40  1  0  0  0  0
  7 14  2  0  0  0  0
  7 24  1  0  0  0  0
  8 18  2  0  0  0  0
  8 19  1  0  0  0  0
  9 26  2  0  0  0  0
  9 28  1  0  0  0  0
 10 11  1  0  0  0  0
 10 12  2  0  0  0  0
 10 15  1  0  0  0  0
 11 13  1  0  0  0  0
 11 30  1  0  0  0  0
 11 31  1  0  0  0  0
 12 14  1  0  0  0  0
 12 16  2  0  0  0  0
 13 17  2  0  0  0  0
 13 18  1  0  0  0  0
 15 32  1  0  0  0  0
 16 23  1  0  0  0  0
 16 34  1  0  0  0  0
 17 21  1  0  0  0  0
 17 35  1  0  0  0  0
 18 36  1  0  0  0  0
 19 21  2  0  0  0  0
 20 22  1  0  0  0  0
 20 37  1  0  0  0  0
 20 38  1  0  0  0  0
 21 39  1  0  0  0  0
 22 25  2  0  0  0  0
 22 26  1  0  0  0  0
 23 24  2  0  0  0  0
 24 41  1  0  0  0  0
 25 27  1  0  0  0  0
 25 42  1  0  0  0  0
 26 43  1  0  0  0  0
 27 28  2  0  0  0  0
 27 44  1  0  0  0  0
 28 29  1  0  0  0  0
M  END
