DB12407
 OpenBabel07062211533D

 63 63  0  0  1  0  0  0  0  0999 V2000
    1.7673   -2.8197   -0.2611 I   0  0  0  0  0  0  0  0  0  0  0  0
    2.0408    2.9981    1.5725 I   0  0  0  0  0  0  0  0  0  0  0  0
   -3.1947    0.7237   -0.5893 I   0  0  0  0  0  0  0  0  0  0  0  0
   -4.7831   -2.6619   -0.5537 O   0  0  0  0  0  0  0  0  0  0  0  0
    5.4985   -2.2507    0.9302 O   0  0  0  0  0  0  0  0  0  0  0  0
   -1.2853   -2.0034   -2.0679 O   0  0  0  0  0  0  0  0  0  0  0  0
    3.2073   -0.4177    2.0651 O   0  0  0  0  0  0  0  0  0  0  0  0
   -6.3343   -4.9097   -0.0234 O   0  0  0  0  0  0  0  0  0  0  0  0
    8.0063   -0.9774    0.8727 O   0  0  0  0  0  0  0  0  0  0  0  0
   -0.7999    6.3181   -1.0176 O   0  0  0  0  0  0  0  0  0  0  0  0
   -4.4787    4.2558   -0.2797 O   0  0  0  0  0  0  0  0  0  0  0  0
   -1.7438    3.3708   -1.5192 O   0  0  0  0  0  0  0  0  0  0  0  0
   -1.9456   -2.7529    0.0454 N   0  0  0  0  0  0  0  0  0  0  0  0
    3.9295    0.2075   -0.0684 N   0  0  0  0  0  0  0  0  0  0  0  0
   -1.0406    2.7865    0.6405 N   0  0  0  0  0  0  0  0  0  0  0  0
   -2.7163   -3.9035   -0.4211 C   0  0  0  0  0  0  0  0  0  0  0  0
    5.3590    0.0429    0.1867 C   0  0  0  0  0  0  0  0  0  0  0  0
   -0.5221   -0.7679   -0.2864 C   0  0  0  0  0  0  0  0  0  0  0  0
    1.5498    0.1319    0.5707 C   0  0  0  0  0  0  0  0  0  0  0  0
   -0.4134    1.5337    0.4397 C   0  0  0  0  0  0  0  0  0  0  0  0
   -4.1863   -3.8401   -0.0105 C   0  0  2  0  0  0  0  0  0  0  0  0
    5.8607   -1.3648   -0.1296 C   0  0  1  0  0  0  0  0  0  0  0  0
    0.8230   -0.9352    0.0431 C   0  0  0  0  0  0  0  0  0  0  0  0
   -1.2853   -1.8879   -0.8392 C   0  0  0  0  0  0  0  0  0  0  0  0
    2.9617   -0.0430    0.9153 C   0  0  0  0  0  0  0  0  0  0  0  0
   -2.2080    4.8828    0.3113 C   0  0  0  0  0  0  0  0  0  0  0  0
    0.9316    1.3664    0.7691 C   0  0  0  0  0  0  0  0  0  0  0  0
   -1.1402    0.4666   -0.0881 C   0  0  0  0  0  0  0  0  0  0  0  0
   -1.6407    3.5996   -0.3173 C   0  0  0  0  0  0  0  0  0  0  0  0
   -4.9911   -5.0491   -0.4761 C   0  0  0  0  0  0  0  0  0  0  0  0
    7.3727   -1.4350   -0.3178 C   0  0  0  0  0  0  0  0  0  0  0  0
   -1.9077   -2.5629    1.4887 C   0  0  0  0  0  0  0  0  0  0  0  0
    3.5752    0.6489   -1.4101 C   0  0  0  0  0  0  0  0  0  0  0  0
   -2.1557    6.0566   -0.6723 C   0  0  0  0  0  0  0  0  0  0  0  0
   -3.6375    4.6305    0.8046 C   0  0  0  0  0  0  0  0  0  0  0  0
   -2.2413   -4.8056   -0.0186 H   0  0  0  0  0  0  0  0  0  0  0  0
   -2.6438   -3.9535   -1.5133 H   0  0  0  0  0  0  0  0  0  0  0  0
    5.5334    0.2663    1.2461 H   0  0  0  0  0  0  0  0  0  0  0  0
    5.8940    0.7947   -0.4049 H   0  0  0  0  0  0  0  0  0  0  0  0
   -4.2889   -3.7638    1.0778 H   0  0  0  0  0  0  0  0  0  0  0  0
    5.3902   -1.7435   -1.0443 H   0  0  0  0  0  0  0  0  0  0  0  0
   -1.5813    5.1478    1.1729 H   0  0  0  0  0  0  0  0  0  0  0  0
   -0.7074    3.2766    1.4684 H   0  0  0  0  0  0  0  0  0  0  0  0
   -5.0135   -5.1048   -1.5694 H   0  0  0  0  0  0  0  0  0  0  0  0
   -4.5778   -5.9779   -0.0714 H   0  0  0  0  0  0  0  0  0  0  0  0
    7.6918   -2.4680   -0.4891 H   0  0  0  0  0  0  0  0  0  0  0  0
    7.6972   -0.8092   -1.1547 H   0  0  0  0  0  0  0  0  0  0  0  0
   -2.8510   -2.1136    1.8121 H   0  0  0  0  0  0  0  0  0  0  0  0
   -1.0955   -1.9161    1.8216 H   0  0  0  0  0  0  0  0  0  0  0  0
   -1.7811   -3.5342    1.9770 H   0  0  0  0  0  0  0  0  0  0  0  0
    4.0097    1.6402   -1.5733 H   0  0  0  0  0  0  0  0  0  0  0  0
    2.5033    0.7144   -1.5945 H   0  0  0  0  0  0  0  0  0  0  0  0
    4.0031   -0.0499   -2.1351 H   0  0  0  0  0  0  0  0  0  0  0  0
   -2.5639    6.9629   -0.2140 H   0  0  0  0  0  0  0  0  0  0  0  0
   -2.7134    5.8582   -1.5936 H   0  0  0  0  0  0  0  0  0  0  0  0
   -4.0499    5.5320    1.2694 H   0  0  0  0  0  0  0  0  0  0  0  0
   -3.6542    3.8211    1.5422 H   0  0  0  0  0  0  0  0  0  0  0  0
   -4.2631   -1.9009   -0.2439 H   0  0  0  0  0  0  0  0  0  0  0  0
    4.5280   -2.2561    0.9877 H   0  0  0  0  0  0  0  0  0  0  0  0
   -6.8218   -5.6916   -0.3347 H   0  0  0  0  0  0  0  0  0  0  0  0
    8.9656   -1.0344    0.7240 H   0  0  0  0  0  0  0  0  0  0  0  0
   -0.4748    5.5641   -1.5381 H   0  0  0  0  0  0  0  0  0  0  0  0
   -5.3670    4.1076    0.0870 H   0  0  0  0  0  0  0  0  0  0  0  0
  1 23  1  0  0  0  0
  2 27  1  0  0  0  0
  3 28  1  0  0  0  0
  4 21  1  0  0  0  0
  4 58  1  0  0  0  0
  5 22  1  0  0  0  0
  5 59  1  0  0  0  0
  6 24  2  0  0  0  0
  7 25  2  0  0  0  0
  8 30  1  0  0  0  0
  8 60  1  0  0  0  0
  9 31  1  0  0  0  0
  9 61  1  0  0  0  0
 10 34  1  0  0  0  0
 10 62  1  0  0  0  0
 11 35  1  0  0  0  0
 11 63  1  0  0  0  0
 12 29  2  0  0  0  0
 13 16  1  0  0  0  0
 13 24  1  0  0  0  0
 13 32  1  0  0  0  0
 14 17  1  0  0  0  0
 14 25  1  0  0  0  0
 14 33  1  0  0  0  0
 15 20  1  0  0  0  0
 15 29  1  0  0  0  0
 15 43  1  0  0  0  0
 16 21  1  0  0  0  0
 16 36  1  0  0  0  0
 16 37  1  0  0  0  0
 17 22  1  0  0  0  0
 17 38  1  0  0  0  0
 17 39  1  0  0  0  0
 18 23  2  0  0  0  0
 18 24  1  0  0  0  0
 18 28  1  0  0  0  0
 19 23  1  0  0  0  0
 19 25  1  0  0  0  0
 19 27  2  0  0  0  0
 20 27  1  0  0  0  0
 20 28  2  0  0  0  0
 21 30  1  0  0  0  0
 21 40  1  1  0  0  0
 22 31  1  0  0  0  0
 22 41  1  6  0  0  0
 26 29  1  0  0  0  0
 26 34  1  0  0  0  0
 26 35  1  0  0  0  0
 26 42  1  0  0  0  0
 30 44  1  0  0  0  0
 30 45  1  0  0  0  0
 31 46  1  0  0  0  0
 31 47  1  0  0  0  0
 32 48  1  0  0  0  0
 32 49  1  0  0  0  0
 32 50  1  0  0  0  0
 33 51  1  0  0  0  0
 33 52  1  0  0  0  0
 33 53  1  0  0  0  0
 34 54  1  0  0  0  0
 34 55  1  0  0  0  0
 35 56  1  0  0  0  0
 35 57  1  0  0  0  0
M  END
