DB12597
 OpenBabel07062211533D

 49 52  0  0  1  0  0  0  0  0999 V2000
  -10.4211    0.7037   -0.0686 Cl  0  0  0  0  0  0  0  0  0  0  0  0
   -8.2773    1.8550    0.7337 F   0  0  0  0  0  0  0  0  0  0  0  0
   -8.3340    1.3494   -1.4072 F   0  0  0  0  0  0  0  0  0  0  0  0
    6.3031    0.3868    1.0331 O   0  0  0  0  0  0  0  0  0  0  0  0
   -2.0012   -2.7585    0.4995 O   0  0  0  0  0  0  0  0  0  0  0  0
   -8.0177   -0.3205    0.1099 O   0  0  0  0  0  0  0  0  0  0  0  0
    3.8556   -0.7766   -0.3328 N   0  0  0  0  0  0  0  0  0  0  0  0
    2.0207   -2.2148   -0.4062 N   0  0  0  0  0  0  0  0  0  0  0  0
    3.1790    1.7070    1.3325 N   0  0  0  0  0  0  0  0  0  0  0  0
    3.5551    2.9964    1.3767 N   0  0  0  0  0  0  0  0  0  0  0  0
   -2.4553   -0.5163   -0.0228 N   0  0  0  0  0  0  0  0  0  0  0  0
    6.1630   -0.7179    0.1462 C   0  0  2  0  0  0  0  0  0  0  0  0
    5.9414   -0.2244   -1.2750 C   0  0  0  0  0  0  0  0  0  0  0  0
    4.8683   -1.4632    0.4717 C   0  0  0  0  0  0  0  0  0  0  0  0
    4.4577    0.1461   -1.2914 C   0  0  0  0  0  0  0  0  0  0  0  0
    2.4974   -0.9679   -0.1927 C   0  0  0  0  0  0  0  0  0  0  0  0
    1.7070    0.1161    0.1536 C   0  0  0  0  0  0  0  0  0  0  0  0
    0.3391   -0.0931    0.2896 C   0  0  0  0  0  0  0  0  0  0  0  0
    2.2478    1.4371    0.3730 C   0  0  0  0  0  0  0  0  0  0  0  0
   -0.1891   -1.3619    0.0779 C   0  0  0  0  0  0  0  0  0  0  0  0
    0.6862   -2.3797   -0.2651 C   0  0  0  0  0  0  0  0  0  0  0  0
    1.9971    2.6333   -0.2539 C   0  0  0  0  0  0  0  0  0  0  0  0
   -1.6132   -1.6132    0.2128 C   0  0  0  0  0  0  0  0  0  0  0  0
    2.8299    3.5574    0.4054 C   0  0  0  0  0  0  0  0  0  0  0  0
   -3.8705   -0.4661    0.0109 C   0  0  0  0  0  0  0  0  0  0  0  0
   -4.6019   -1.6157    0.3097 C   0  0  0  0  0  0  0  0  0  0  0  0
   -4.5329    0.7325   -0.2546 C   0  0  0  0  0  0  0  0  0  0  0  0
   -5.9955   -1.5667    0.3428 C   0  0  0  0  0  0  0  0  0  0  0  0
   -5.9264    0.7815   -0.2215 C   0  0  0  0  0  0  0  0  0  0  0  0
   -6.6577   -0.3682    0.0772 C   0  0  0  0  0  0  0  0  0  0  0  0
   -8.6695    0.9195   -0.1660 C   0  0  0  0  0  0  0  0  0  0  0  0
    7.0512   -1.3490    0.2404 H   0  0  0  0  0  0  0  0  0  0  0  0
    6.1256   -1.0376   -1.9872 H   0  0  0  0  0  0  0  0  0  0  0  0
    6.5700    0.6303   -1.5415 H   0  0  0  0  0  0  0  0  0  0  0  0
    4.9339   -2.5087    0.1509 H   0  0  0  0  0  0  0  0  0  0  0  0
    4.6214   -1.4208    1.5378 H   0  0  0  0  0  0  0  0  0  0  0  0
    4.3648    1.1939   -1.0062 H   0  0  0  0  0  0  0  0  0  0  0  0
    4.0391    0.0188   -2.2956 H   0  0  0  0  0  0  0  0  0  0  0  0
    6.3941    0.0292    1.9328 H   0  0  0  0  0  0  0  0  0  0  0  0
   -0.2878    0.7393    0.5990 H   0  0  0  0  0  0  0  0  0  0  0  0
    0.3416   -3.3928   -0.4489 H   0  0  0  0  0  0  0  0  0  0  0  0
    1.3136    2.8157   -1.0706 H   0  0  0  0  0  0  0  0  0  0  0  0
    3.6031    1.0635    1.9894 H   0  0  0  0  0  0  0  0  0  0  0  0
    2.9387    4.6159    0.2179 H   0  0  0  0  0  0  0  0  0  0  0  0
   -2.0299    0.3658   -0.2942 H   0  0  0  0  0  0  0  0  0  0  0  0
   -4.1623   -2.5788    0.5260 H   0  0  0  0  0  0  0  0  0  0  0  0
   -3.9740    1.6353   -0.4880 H   0  0  0  0  0  0  0  0  0  0  0  0
   -6.5612   -2.4648    0.5762 H   0  0  0  0  0  0  0  0  0  0  0  0
   -6.3673    1.7475   -0.4365 H   0  0  0  0  0  0  0  0  0  0  0  0
  1 31  1  0  0  0  0
  2 31  1  0  0  0  0
  3 31  1  0  0  0  0
  4 12  1  0  0  0  0
  4 39  1  0  0  0  0
  5 23  2  0  0  0  0
  6 30  1  0  0  0  0
  6 31  1  0  0  0  0
  7 14  1  0  0  0  0
  7 15  1  0  0  0  0
  7 16  1  0  0  0  0
  8 16  2  0  0  0  0
  8 21  1  0  0  0  0
  9 10  1  0  0  0  0
  9 19  2  0  0  0  0
  9 43  1  0  0  0  0
 10 24  1  0  0  0  0
 11 23  1  0  0  0  0
 11 25  1  0  0  0  0
 11 45  1  0  0  0  0
 12 13  1  0  0  0  0
 12 14  1  0  0  0  0
 12 32  1  1  0  0  0
 13 15  1  0  0  0  0
 13 33  1  0  0  0  0
 13 34  1  0  0  0  0
 14 35  1  0  0  0  0
 14 36  1  0  0  0  0
 15 37  1  0  0  0  0
 15 38  1  0  0  0  0
 16 17  1  0  0  0  0
 17 18  2  0  0  0  0
 17 19  1  0  0  0  0
 18 20  1  0  0  0  0
 18 40  1  0  0  0  0
 19 22  1  0  0  0  0
 20 21  2  0  0  0  0
 20 23  1  0  0  0  0
 21 41  1  0  0  0  0
 22 24  2  0  0  0  0
 22 42  1  0  0  0  0
 24 44  1  0  0  0  0
 25 26  2  0  0  0  0
 25 27  1  0  0  0  0
 26 28  1  0  0  0  0
 26 46  1  0  0  0  0
 27 29  2  0  0  0  0
 27 47  1  0  0  0  0
 28 30  2  0  0  0  0
 28 48  1  0  0  0  0
 29 30  1  0  0  0  0
 29 49  1  0  0  0  0
M  END
