DB12480
 OpenBabel07062211533D

 81 85  0  0  1  0  0  0  0  0999 V2000
   -6.7119   -1.5176    0.6288 O   0  0  0  0  0  0  0  0  0  0  0  0
    4.7704    2.9912   -1.4641 O   0  0  0  0  0  0  0  0  0  0  0  0
    3.5385    1.2893   -2.3482 O   0  0  0  0  0  0  0  0  0  0  0  0
   -0.4493    0.9566   -0.1874 C   0  0  1  0  0  0  0  0  0  0  0  0
    1.0339    0.9379    0.4880 C   0  0  1  0  0  0  0  0  0  0  0  0
   -1.0497   -0.5090   -0.1434 C   0  0  1  0  0  0  0  0  0  0  0  0
    1.9348   -0.1003   -0.2990 C   0  0  1  0  0  0  0  0  0  0  0  0
   -2.5934   -0.6593   -0.5223 C   0  0  2  0  0  0  0  0  0  0  0  0
    3.3951   -0.0677    0.2046 C   0  0  2  0  0  0  0  0  0  0  0  0
   -3.3938    0.3579    0.3779 C   0  0  1  0  0  0  0  0  0  0  0  0
    4.0013    1.3376    0.0415 C   0  0  1  0  0  0  0  0  0  0  0  0
   -1.4042    1.9175    0.5747 C   0  0  0  0  0  0  0  0  0  0  0  0
   -0.1130   -1.5214   -0.8407 C   0  0  0  0  0  0  0  0  0  0  0  0
    1.7228    2.3491    0.4618 C   0  0  0  0  0  0  0  0  0  0  0  0
    1.3166   -1.5027   -0.2928 C   0  0  0  0  0  0  0  0  0  0  0  0
   -2.8818    1.7991    0.1845 C   0  0  0  0  0  0  0  0  0  0  0  0
    3.2125    2.3527    0.8677 C   0  0  0  0  0  0  0  0  0  0  0  0
   -4.9611    0.2064    0.3700 C   0  0  0  0  0  0  0  0  0  0  0  0
    4.4577   -0.9836   -0.4337 C   0  0  1  0  0  0  0  0  0  0  0  0
   -3.0664   -2.0990   -0.1445 C   0  0  0  0  0  0  0  0  0  0  0  0
   -0.3584    1.4887   -1.6493 C   0  0  0  0  0  0  0  0  0  0  0  0
    0.9523    0.5452    2.0029 C   0  0  0  0  0  0  0  0  0  0  0  0
    5.4432    1.0978    0.4850 C   0  0  0  0  0  0  0  0  0  0  0  0
    5.7967   -0.2783   -0.1091 C   0  0  0  0  0  0  0  0  0  0  0  0
   -2.8402   -0.4757   -2.0389 C   0  0  0  0  0  0  0  0  0  0  0  0
   -5.3078   -1.2739    0.7069 C   0  0  2  0  0  0  0  0  0  0  0  0
   -4.5814   -2.2929   -0.1637 C   0  0  0  0  0  0  0  0  0  0  0  0
    4.0582    1.8406   -1.3892 C   0  0  0  0  0  0  0  0  0  0  0  0
   -5.6246    0.6661   -0.9436 C   0  0  0  0  0  0  0  0  0  0  0  0
   -5.5822    1.0850    1.4918 C   0  0  0  0  0  0  0  0  0  0  0  0
    4.4536   -2.3902    0.0727 C   0  0  0  0  0  0  0  0  0  0  0  0
    4.6293   -2.5610    1.5525 C   0  0  0  0  0  0  0  0  0  0  0  0
    4.3010   -3.4391   -0.7491 C   0  0  0  0  0  0  0  0  0  0  0  0
   -1.0354   -0.8030    0.9135 H   0  0  0  0  0  0  0  0  0  0  0  0
    1.9356    0.1858   -1.3487 H   0  0  0  0  0  0  0  0  0  0  0  0
    3.3778   -0.2923    1.2759 H   0  0  0  0  0  0  0  0  0  0  0  0
   -3.1138    0.1003    1.4137 H   0  0  0  0  0  0  0  0  0  0  0  0
   -1.0885    2.9582    0.4321 H   0  0  0  0  0  0  0  0  0  0  0  0
   -1.3580    1.7317    1.6515 H   0  0  0  0  0  0  0  0  0  0  0  0
   -0.0717   -1.3397   -1.9189 H   0  0  0  0  0  0  0  0  0  0  0  0
   -0.4899   -2.5416   -0.7186 H   0  0  0  0  0  0  0  0  0  0  0  0
    1.1850    3.0422    1.1200 H   0  0  0  0  0  0  0  0  0  0  0  0
    1.6712    2.7853   -0.5384 H   0  0  0  0  0  0  0  0  0  0  0  0
    1.3350   -1.9332    0.7145 H   0  0  0  0  0  0  0  0  0  0  0  0
    1.9009   -2.1695   -0.9319 H   0  0  0  0  0  0  0  0  0  0  0  0
   -3.4288    2.4932    0.8294 H   0  0  0  0  0  0  0  0  0  0  0  0
   -3.0434    2.1542   -0.8363 H   0  0  0  0  0  0  0  0  0  0  0  0
    3.6096    3.3677    0.7437 H   0  0  0  0  0  0  0  0  0  0  0  0
    3.3067    2.1297    1.9368 H   0  0  0  0  0  0  0  0  0  0  0  0
    4.3263   -0.9874   -1.5237 H   0  0  0  0  0  0  0  0  0  0  0  0
   -2.7061   -2.3513    0.8615 H   0  0  0  0  0  0  0  0  0  0  0  0
   -2.6268   -2.8376   -0.8253 H   0  0  0  0  0  0  0  0  0  0  0  0
    0.0717    2.4920   -1.6953 H   0  0  0  0  0  0  0  0  0  0  0  0
    0.2288    0.8476   -2.3091 H   0  0  0  0  0  0  0  0  0  0  0  0
   -1.3335    1.6011   -2.1187 H   0  0  0  0  0  0  0  0  0  0  0  0
    0.4007    1.2893    2.5845 H   0  0  0  0  0  0  0  0  0  0  0  0
    0.4835   -0.4244    2.1770 H   0  0  0  0  0  0  0  0  0  0  0  0
    1.9331    0.4888    2.4807 H   0  0  0  0  0  0  0  0  0  0  0  0
    5.4969    1.0344    1.5795 H   0  0  0  0  0  0  0  0  0  0  0  0
    6.1647    1.8592    0.1735 H   0  0  0  0  0  0  0  0  0  0  0  0
    6.3456   -0.1308   -1.0488 H   0  0  0  0  0  0  0  0  0  0  0  0
    6.4803   -0.8233    0.5472 H   0  0  0  0  0  0  0  0  0  0  0  0
   -1.9802   -0.7791   -2.6402 H   0  0  0  0  0  0  0  0  0  0  0  0
   -3.6668   -1.0878   -2.4085 H   0  0  0  0  0  0  0  0  0  0  0  0
   -3.0859    0.5519   -2.3102 H   0  0  0  0  0  0  0  0  0  0  0  0
   -5.0168   -1.4776    1.7469 H   0  0  0  0  0  0  0  0  0  0  0  0
   -4.9753   -2.2671   -1.1854 H   0  0  0  0  0  0  0  0  0  0  0  0
   -4.8180   -3.3031    0.1952 H   0  0  0  0  0  0  0  0  0  0  0  0
   -6.7156    0.7079   -0.8384 H   0  0  0  0  0  0  0  0  0  0  0  0
   -5.2969    1.6696   -1.2323 H   0  0  0  0  0  0  0  0  0  0  0  0
   -5.4282   -0.0089   -1.7768 H   0  0  0  0  0  0  0  0  0  0  0  0
   -5.1236    0.8707    2.4634 H   0  0  0  0  0  0  0  0  0  0  0  0
   -5.4594    2.1534    1.2889 H   0  0  0  0  0  0  0  0  0  0  0  0
   -6.6604    0.9210    1.5917 H   0  0  0  0  0  0  0  0  0  0  0  0
   -7.1300   -1.1190    1.4098 H   0  0  0  0  0  0  0  0  0  0  0  0
    5.4785   -2.0046    1.9544 H   0  0  0  0  0  0  0  0  0  0  0  0
    3.7274   -2.2566    2.0922 H   0  0  0  0  0  0  0  0  0  0  0  0
    4.8032   -3.6131    1.8078 H   0  0  0  0  0  0  0  0  0  0  0  0
    4.8194    3.3323   -2.3826 H   0  0  0  0  0  0  0  0  0  0  0  0
    4.2971   -4.4559   -0.3708 H   0  0  0  0  0  0  0  0  0  0  0  0
    4.1755   -3.3075   -1.8187 H   0  0  0  0  0  0  0  0  0  0  0  0
  1 26  1  0  0  0  0
  1 75  1  0  0  0  0
  2 28  1  0  0  0  0
  2 79  1  0  0  0  0
  3 28  2  0  0  0  0
  4  5  1  1  0  0  0
  4 12  1  0  0  0  0
  4 21  1  0  0  0  0
  5  7  1  6  0  0  0
  5 14  1  0  0  0  0
  5 22  1  0  0  0  0
  6  4  1  6  0  0  0
  6 13  1  0  0  0  0
  6 34  1  0  0  0  0
  7  9  1  1  0  0  0
  7 15  1  0  0  0  0
  7 35  1  0  0  0  0
  8  6  1  1  0  0  0
  8 20  1  0  0  0  0
  8 25  1  0  0  0  0
  9 11  1  6  0  0  0
  9 36  1  0  0  0  0
 10  8  1  6  0  0  0
 10 16  1  0  0  0  0
 10 18  1  0  0  0  0
 10 37  1  0  0  0  0
 11 17  1  0  0  0  0
 11 23  1  0  0  0  0
 11 28  1  6  0  0  0
 12 16  1  0  0  0  0
 12 38  1  0  0  0  0
 12 39  1  0  0  0  0
 13 15  1  0  0  0  0
 13 40  1  0  0  0  0
 13 41  1  0  0  0  0
 14 17  1  0  0  0  0
 14 42  1  0  0  0  0
 14 43  1  0  0  0  0
 15 44  1  0  0  0  0
 15 45  1  0  0  0  0
 16 46  1  0  0  0  0
 16 47  1  0  0  0  0
 17 48  1  0  0  0  0
 17 49  1  0  0  0  0
 18 26  1  0  0  0  0
 18 29  1  0  0  0  0
 18 30  1  0  0  0  0
 19  9  1  1  0  0  0
 19 24  1  0  0  0  0
 19 31  1  0  0  0  0
 19 50  1  0  0  0  0
 20 27  1  0  0  0  0
 20 51  1  0  0  0  0
 20 52  1  0  0  0  0
 21 53  1  0  0  0  0
 21 54  1  0  0  0  0
 21 55  1  0  0  0  0
 22 56  1  0  0  0  0
 22 57  1  0  0  0  0
 22 58  1  0  0  0  0
 23 24  1  0  0  0  0
 23 59  1  0  0  0  0
 23 60  1  0  0  0  0
 24 61  1  0  0  0  0
 24 62  1  0  0  0  0
 25 63  1  0  0  0  0
 25 64  1  0  0  0  0
 25 65  1  0  0  0  0
 26 27  1  0  0  0  0
 26 66  1  1  0  0  0
 27 67  1  0  0  0  0
 27 68  1  0  0  0  0
 29 69  1  0  0  0  0
 29 70  1  0  0  0  0
 29 71  1  0  0  0  0
 30 72  1  0  0  0  0
 30 73  1  0  0  0  0
 30 74  1  0  0  0  0
 31 32  1  0  0  0  0
 31 33  2  0  0  0  0
 32 76  1  0  0  0  0
 32 77  1  0  0  0  0
 32 78  1  0  0  0  0
 33 80  1  0  0  0  0
 33 81  1  0  0  0  0
M  END
