DB12153
 OpenBabel07062211533D

 57 58  0  0  1  0  0  0  0  0999 V2000
   -3.4448    2.5606   -1.3723 P   0  0  1  0  0  0  0  0  0  0  0  0
   -1.7325    3.7029    0.7553 P   0  0  1  0  0  0  0  0  0  0  0  0
   -2.4995   -2.3240   -0.7903 O   0  0  0  0  0  0  0  0  0  0  0  0
   -4.1418   -2.1699    1.7134 O   0  0  0  0  0  0  0  0  0  0  0  0
   -1.6014   -2.3895    2.6809 O   0  0  0  0  0  0  0  0  0  0  0  0
   -3.7361    1.0755   -0.7993 O   0  0  0  0  0  0  0  0  0  0  0  0
   -0.1016    3.7880    0.6647 O   0  0  0  0  0  0  0  0  0  0  0  0
   -2.0480    2.9968   -0.6832 O   0  0  0  0  0  0  0  0  0  0  0  0
    0.1266   -4.7946    1.1626 O   0  0  0  0  0  0  0  0  0  0  0  0
   -3.0343    2.3207   -2.9188 O   0  0  0  0  0  0  0  0  0  0  0  0
   -4.5646    3.5412   -1.1759 O   0  0  0  0  0  0  0  0  0  0  0  0
   -2.1252    2.7430    1.8575 O   0  0  0  0  0  0  0  0  0  0  0  0
   -2.2817    5.1128    0.7301 O   0  0  0  0  0  0  0  0  0  0  0  0
   -0.3381   -2.9889   -0.1973 N   0  0  0  0  0  0  0  0  0  0  0  0
    2.8538    1.5772    0.5036 N   0  3  0  0  0  0  0  0  0  0  0  0
    1.7986   -4.1101   -0.2115 N   0  0  0  0  0  0  0  0  0  0  0  0
    3.5081   -3.4028   -1.6205 N   0  0  0  0  0  0  0  0  0  0  0  0
   -3.1706   -1.2517    1.2126 C   0  0  1  0  0  0  0  0  0  0  0  0
   -1.7751   -1.8063    1.4058 C   0  0  2  0  0  0  0  0  0  0  0  0
   -3.2938   -1.2194   -0.3047 C   0  0  1  0  0  0  0  0  0  0  0  0
   -1.6812   -2.8224    0.2806 C   0  0  1  0  0  0  0  0  0  0  0  0
   -2.7542    0.0621   -0.9254 C   0  0  0  0  0  0  0  0  0  0  0  0
    2.0765    2.7994    0.8296 C   0  0  0  0  0  0  0  0  0  0  0  0
    0.1342   -2.1221   -1.1707 C   0  0  0  0  0  0  0  0  0  0  0  0
    0.5145   -4.0085    0.2962 C   0  0  0  0  0  0  0  0  0  0  0  0
    4.3250    1.7434    0.9080 C   0  0  0  0  0  0  0  0  0  0  0  0
    2.8025    1.2850   -1.0022 C   0  0  0  0  0  0  0  0  0  0  0  0
    2.2893    0.3586    1.2462 C   0  0  0  0  0  0  0  0  0  0  0  0
    0.6384    2.6103    0.3889 C   0  0  0  0  0  0  0  0  0  0  0  0
    1.3658   -2.2024   -1.6706 C   0  0  0  0  0  0  0  0  0  0  0  0
    2.2285   -3.2847   -1.1294 C   0  0  0  0  0  0  0  0  0  0  0  0
   -3.3287   -0.2896    1.7082 H   0  0  0  0  0  0  0  0  0  0  0  0
   -1.0376   -1.0030    1.2909 H   0  0  0  0  0  0  0  0  0  0  0  0
   -4.3271   -1.3875   -0.6293 H   0  0  0  0  0  0  0  0  0  0  0  0
   -2.0800   -3.7960    0.5899 H   0  0  0  0  0  0  0  0  0  0  0  0
   -2.5468   -0.0961   -1.9893 H   0  0  0  0  0  0  0  0  0  0  0  0
   -1.8230    0.3877   -0.4519 H   0  0  0  0  0  0  0  0  0  0  0  0
   -5.0194   -1.7888    1.5388 H   0  0  0  0  0  0  0  0  0  0  0  0
   -0.7178   -2.7951    2.6980 H   0  0  0  0  0  0  0  0  0  0  0  0
    2.1383    2.9844    1.9090 H   0  0  0  0  0  0  0  0  0  0  0  0
    2.5336    3.6569    0.3207 H   0  0  0  0  0  0  0  0  0  0  0  0
   -0.5183   -1.3393   -1.5291 H   0  0  0  0  0  0  0  0  0  0  0  0
    4.7348    2.5941    0.3559 H   0  0  0  0  0  0  0  0  0  0  0  0
    4.3617    1.9294    1.9853 H   0  0  0  0  0  0  0  0  0  0  0  0
    4.8654    0.8258    0.6574 H   0  0  0  0  0  0  0  0  0  0  0  0
    3.0631    2.2004   -1.5412 H   0  0  0  0  0  0  0  0  0  0  0  0
    3.5336    0.4997   -1.2197 H   0  0  0  0  0  0  0  0  0  0  0  0
    1.8096    0.9252   -1.2804 H   0  0  0  0  0  0  0  0  0  0  0  0
    2.2004    0.6107    2.3069 H   0  0  0  0  0  0  0  0  0  0  0  0
    1.3236    0.0763    0.8220 H   0  0  0  0  0  0  0  0  0  0  0  0
    2.9885   -0.4735    1.1137 H   0  0  0  0  0  0  0  0  0  0  0  0
    0.5470    2.4455   -0.6866 H   0  0  0  0  0  0  0  0  0  0  0  0
    0.1526    1.7850    0.9140 H   0  0  0  0  0  0  0  0  0  0  0  0
    1.7430   -1.5269   -2.4267 H   0  0  0  0  0  0  0  0  0  0  0  0
   -2.9368    3.0976   -3.5096 H   0  0  0  0  0  0  0  0  0  0  0  0
    4.1318   -4.1264   -1.2797 H   0  0  0  0  0  0  0  0  0  0  0  0
    3.8713   -2.7764   -2.3314 H   0  0  0  0  0  0  0  0  0  0  0  0
  1  6  1  0  0  0  0
  1  8  1  0  0  0  0
  1 10  1  0  0  0  0
  1 11  2  1  0  0  0
  2  7  1  0  0  0  0
  2  8  1  0  0  0  0
  2 12  1  1  0  0  0
  2 13  2  0  0  0  0
  3 20  1  0  0  0  0
  3 21  1  0  0  0  0
  4 18  1  0  0  0  0
  4 38  1  0  0  0  0
  5 19  1  0  0  0  0
  5 39  1  0  0  0  0
  6 22  1  0  0  0  0
  7 29  1  0  0  0  0
  9 25  2  0  0  0  0
 10 55  1  0  0  0  0
 14 21  1  0  0  0  0
 14 24  1  0  0  0  0
 14 25  1  0  0  0  0
 15 23  1  0  0  0  0
 15 26  1  0  0  0  0
 15 27  1  0  0  0  0
 15 28  1  0  0  0  0
 16 25  1  0  0  0  0
 16 31  2  0  0  0  0
 17 31  1  0  0  0  0
 17 56  1  0  0  0  0
 17 57  1  0  0  0  0
 18 19  1  1  0  0  0
 18 32  1  0  0  0  0
 19 21  1  6  0  0  0
 19 33  1  0  0  0  0
 20 18  1  1  0  0  0
 20 22  1  0  0  0  0
 20 34  1  0  0  0  0
 21 35  1  1  0  0  0
 22 36  1  0  0  0  0
 22 37  1  0  0  0  0
 23 29  1  0  0  0  0
 23 40  1  0  0  0  0
 23 41  1  0  0  0  0
 24 30  2  0  0  0  0
 24 42  1  0  0  0  0
 26 43  1  0  0  0  0
 26 44  1  0  0  0  0
 26 45  1  0  0  0  0
 27 46  1  0  0  0  0
 27 47  1  0  0  0  0
 27 48  1  0  0  0  0
 28 49  1  0  0  0  0
 28 50  1  0  0  0  0
 28 51  1  0  0  0  0
 29 52  1  0  0  0  0
 29 53  1  0  0  0  0
 30 31  1  0  0  0  0
 30 54  1  0  0  0  0
M  CHG  1  15   1
M  END
