DB12466
 OpenBabel07062211533D

 15 15  0  0  0  0  0  0  0  0999 V2000
    2.1055    2.4697    0.0265 F   0  0  0  0  0  0  0  0  0  0  0  0
   -0.3075   -2.2642    0.1832 O   0  0  0  0  0  0  0  0  0  0  0  0
   -2.3087    0.1066    1.7217 O   0  0  0  0  0  0  0  0  0  0  0  0
    1.6605   -1.0616   -0.0794 N   0  0  0  0  0  0  0  0  0  0  0  0
    0.1464    1.2476    0.2871 N   0  0  0  0  0  0  0  0  0  0  0  0
   -2.6534    0.2221   -0.5763 N   0  0  0  0  0  0  0  0  0  0  0  0
   -0.4439    0.0905    0.3250 C   0  0  0  0  0  0  0  0  0  0  0  0
    0.3087   -1.2107    0.1349 C   0  0  0  0  0  0  0  0  0  0  0  0
    2.2445    0.1699   -0.1133 C   0  0  0  0  0  0  0  0  0  0  0  0
    1.4979    1.2629    0.0651 C   0  0  0  0  0  0  0  0  0  0  0  0
   -1.9136    0.1412    0.5704 C   0  0  0  0  0  0  0  0  0  0  0  0
    2.2447   -1.8805   -0.2170 H   0  0  0  0  0  0  0  0  0  0  0  0
    3.3117    0.1991   -0.2874 H   0  0  0  0  0  0  0  0  0  0  0  0
   -3.6665    0.2625   -0.5436 H   0  0  0  0  0  0  0  0  0  0  0  0
   -2.2263    0.2449   -1.4969 H   0  0  0  0  0  0  0  0  0  0  0  0
  1 10  1  0  0  0  0
  2  8  2  0  0  0  0
  3 11  2  0  0  0  0
  4  8  1  0  0  0  0
  4  9  1  0  0  0  0
  4 12  1  0  0  0  0
  5  7  2  0  0  0  0
  5 10  1  0  0  0  0
  6 11  1  0  0  0  0
  6 14  1  0  0  0  0
  6 15  1  0  0  0  0
  7  8  1  0  0  0  0
  7 11  1  0  0  0  0
  9 10  2  0  0  0  0
  9 13  1  0  0  0  0
M  END
