DB12313
 OpenBabel07062211533D

 58 59  0  0  0  0  0  0  0  0999 V2000
   10.1232    2.3140   -0.7638 O   0  0  0  0  0  0  0  0  0  0  0  0
   11.3867   -0.1029   -1.2974 O   0  0  0  0  0  0  0  0  0  0  0  0
    3.9033   -0.0568    0.9197 N   0  0  0  0  0  0  0  0  0  0  0  0
   -4.6773   -0.1809   -0.8229 N   0  0  0  0  0  0  0  0  0  0  0  0
    0.3067   -0.1707   -0.3278 C   0  0  0  0  0  0  0  0  0  0  0  0
   -1.0453   -0.1077    0.3868 C   0  0  0  0  0  0  0  0  0  0  0  0
    1.4653   -0.0883    0.6696 C   0  0  0  0  0  0  0  0  0  0  0  0
   -2.2417   -0.2172   -0.5638 C   0  0  0  0  0  0  0  0  0  0  0  0
    2.8140   -0.1152   -0.0476 C   0  0  0  0  0  0  0  0  0  0  0  0
   -3.5893   -0.0763    0.1434 C   0  0  0  0  0  0  0  0  0  0  0  0
    5.1956   -0.0922    0.2497 C   0  0  0  0  0  0  0  0  0  0  0  0
   -5.9689   -0.0385   -0.1666 C   0  0  0  0  0  0  0  0  0  0  0  0
    6.3397   -0.0402    1.2631 C   0  0  0  0  0  0  0  0  0  0  0  0
   -7.1114   -0.1408   -1.1778 C   0  0  0  0  0  0  0  0  0  0  0  0
    7.6843   -0.0536    0.5807 C   0  0  0  0  0  0  0  0  0  0  0  0
   -8.4548    0.0274   -0.5138 C   0  0  0  0  0  0  0  0  0  0  0  0
    8.2938    1.1473    0.2172 C   0  0  0  0  0  0  0  0  0  0  0  0
    8.3185   -1.2668    0.3127 C   0  0  0  0  0  0  0  0  0  0  0  0
   -9.1336   -1.0871   -0.0207 C   0  0  0  0  0  0  0  0  0  0  0  0
   -9.0187    1.2975   -0.3921 C   0  0  0  0  0  0  0  0  0  0  0  0
    9.5374    1.1350   -0.4144 C   0  0  0  0  0  0  0  0  0  0  0  0
    9.5620   -1.2791   -0.3190 C   0  0  0  0  0  0  0  0  0  0  0  0
   10.1715   -0.0782   -0.6824 C   0  0  0  0  0  0  0  0  0  0  0  0
  -10.3760   -0.9317    0.5938 C   0  0  0  0  0  0  0  0  0  0  0  0
  -10.2613    1.4529    0.2224 C   0  0  0  0  0  0  0  0  0  0  0  0
  -10.9399    0.3382    0.7154 C   0  0  0  0  0  0  0  0  0  0  0  0
    0.3767   -1.1049   -0.8979 H   0  0  0  0  0  0  0  0  0  0  0  0
    0.3775    0.6542   -1.0471 H   0  0  0  0  0  0  0  0  0  0  0  0
   -1.1039   -0.9149    1.1275 H   0  0  0  0  0  0  0  0  0  0  0  0
   -1.1136    0.8364    0.9416 H   0  0  0  0  0  0  0  0  0  0  0  0
    1.4010   -0.9277    1.3735 H   0  0  0  0  0  0  0  0  0  0  0  0
    1.3762    0.8340    1.2576 H   0  0  0  0  0  0  0  0  0  0  0  0
   -2.1952   -1.1837   -1.0819 H   0  0  0  0  0  0  0  0  0  0  0  0
   -2.1542    0.5592   -1.3351 H   0  0  0  0  0  0  0  0  0  0  0  0
    2.8746    0.7338   -0.7396 H   0  0  0  0  0  0  0  0  0  0  0  0
    2.8871   -1.0364   -0.6382 H   0  0  0  0  0  0  0  0  0  0  0  0
   -3.6804   -0.8578    0.9073 H   0  0  0  0  0  0  0  0  0  0  0  0
   -3.6274    0.8960    0.6493 H   0  0  0  0  0  0  0  0  0  0  0  0
    3.8258    0.7936    1.4767 H   0  0  0  0  0  0  0  0  0  0  0  0
   -4.6298   -1.0803   -1.3009 H   0  0  0  0  0  0  0  0  0  0  0  0
    5.2823   -1.0104   -0.3451 H   0  0  0  0  0  0  0  0  0  0  0  0
    5.2824    0.7544   -0.4436 H   0  0  0  0  0  0  0  0  0  0  0  0
   -6.0897   -0.8140    0.6008 H   0  0  0  0  0  0  0  0  0  0  0  0
   -6.0221    0.9331    0.3411 H   0  0  0  0  0  0  0  0  0  0  0  0
    6.2731   -0.8893    1.9562 H   0  0  0  0  0  0  0  0  0  0  0  0
    6.2583    0.8606    1.8857 H   0  0  0  0  0  0  0  0  0  0  0  0
   -7.0793   -1.1095   -1.6941 H   0  0  0  0  0  0  0  0  0  0  0  0
   -6.9956    0.6194   -1.9616 H   0  0  0  0  0  0  0  0  0  0  0  0
    7.7972    2.0921    0.4254 H   0  0  0  0  0  0  0  0  0  0  0  0
    7.8526   -2.2088    0.5895 H   0  0  0  0  0  0  0  0  0  0  0  0
   -8.7036   -2.0814   -0.1078 H   0  0  0  0  0  0  0  0  0  0  0  0
   -8.4989    2.1736   -0.7705 H   0  0  0  0  0  0  0  0  0  0  0  0
   10.0447   -2.2313   -0.5222 H   0  0  0  0  0  0  0  0  0  0  0  0
  -10.9042   -1.7994    0.9782 H   0  0  0  0  0  0  0  0  0  0  0  0
  -10.7004    2.4416    0.3177 H   0  0  0  0  0  0  0  0  0  0  0  0
  -11.9072    0.4592    1.1942 H   0  0  0  0  0  0  0  0  0  0  0  0
    9.5412    3.0476   -0.5007 H   0  0  0  0  0  0  0  0  0  0  0  0
   11.6709   -1.0274   -1.4005 H   0  0  0  0  0  0  0  0  0  0  0  0
  1 21  1  0  0  0  0
  1 57  1  0  0  0  0
  2 23  1  0  0  0  0
  2 58  1  0  0  0  0
  3  9  1  0  0  0  0
  3 11  1  0  0  0  0
  3 39  1  0  0  0  0
  4 10  1  0  0  0  0
  4 12  1  0  0  0  0
  4 40  1  0  0  0  0
  5  6  1  0  0  0  0
  5  7  1  0  0  0  0
  5 27  1  0  0  0  0
  5 28  1  0  0  0  0
  6  8  1  0  0  0  0
  6 29  1  0  0  0  0
  6 30  1  0  0  0  0
  7  9  1  0  0  0  0
  7 31  1  0  0  0  0
  7 32  1  0  0  0  0
  8 10  1  0  0  0  0
  8 33  1  0  0  0  0
  8 34  1  0  0  0  0
  9 35  1  0  0  0  0
  9 36  1  0  0  0  0
 10 37  1  0  0  0  0
 10 38  1  0  0  0  0
 11 13  1  0  0  0  0
 11 41  1  0  0  0  0
 11 42  1  0  0  0  0
 12 14  1  0  0  0  0
 12 43  1  0  0  0  0
 12 44  1  0  0  0  0
 13 15  1  0  0  0  0
 13 45  1  0  0  0  0
 13 46  1  0  0  0  0
 14 16  1  0  0  0  0
 14 47  1  0  0  0  0
 14 48  1  0  0  0  0
 15 17  2  0  0  0  0
 15 18  1  0  0  0  0
 16 19  2  0  0  0  0
 16 20  1  0  0  0  0
 17 21  1  0  0  0  0
 17 49  1  0  0  0  0
 18 22  2  0  0  0  0
 18 50  1  0  0  0  0
 19 24  1  0  0  0  0
 19 51  1  0  0  0  0
 20 25  2  0  0  0  0
 20 52  1  0  0  0  0
 21 23  2  0  0  0  0
 22 23  1  0  0  0  0
 22 53  1  0  0  0  0
 24 26  2  0  0  0  0
 24 54  1  0  0  0  0
 25 26  1  0  0  0  0
 25 55  1  0  0  0  0
 26 56  1  0  0  0  0
M  END
