DB12362
 OpenBabel07062211533D

 40 39  0  0  0  0  0  0  0  0999 V2000
   -0.4906    0.7549    2.4424 O   0  0  0  0  0  0  0  0  0  0  0  0
    3.5028   -3.0548   -0.9265 O   0  0  0  0  0  0  0  0  0  0  0  0
    4.3572    2.1567    0.8293 O   0  0  0  0  0  0  0  0  0  0  0  0
   -4.1965   -2.6817   -0.0021 O   0  0  0  0  0  0  0  0  0  0  0  0
   -2.3914    2.7102   -2.0693 O   0  0  0  0  0  0  0  0  0  0  0  0
    2.1600   -1.9491   -2.3926 O   0  0  0  0  0  0  0  0  0  0  0  0
    3.1023    2.4449   -1.0462 O   0  0  0  0  0  0  0  0  0  0  0  0
   -4.6734   -0.7802    1.1521 O   0  0  0  0  0  0  0  0  0  0  0  0
   -3.1039    3.1039    0.0550 O   0  0  0  0  0  0  0  0  0  0  0  0
    2.0738   -0.1426   -0.0551 N   0  0  0  0  0  0  0  0  0  0  0  0
   -2.2646    0.2771    0.2410 N   0  0  0  0  0  0  0  0  0  0  0  0
   -0.0220    0.1301    1.2453 C   0  0  0  0  0  0  0  0  0  0  0  0
    1.4627    0.4832    1.1096 C   0  0  0  0  0  0  0  0  0  0  0  0
   -0.8568    0.6238    0.0579 C   0  0  0  0  0  0  0  0  0  0  0  0
    1.9240   -1.5984    0.0020 C   0  0  0  0  0  0  0  0  0  0  0  0
    3.4901    0.2172   -0.1518 C   0  0  0  0  0  0  0  0  0  0  0  0
   -2.4314   -1.1750    0.2977 C   0  0  0  0  0  0  0  0  0  0  0  0
   -3.0758    0.8421   -0.8373 C   0  0  0  0  0  0  0  0  0  0  0  0
    2.5061   -2.1891   -1.2455 C   0  0  0  0  0  0  0  0  0  0  0  0
    3.6024    1.7100   -0.2079 C   0  0  0  0  0  0  0  0  0  0  0  0
   -3.8759   -1.4820    0.5482 C   0  0  0  0  0  0  0  0  0  0  0  0
   -2.8759    2.3265   -0.8598 C   0  0  0  0  0  0  0  0  0  0  0  0
   -0.1083   -0.9394    1.4329 H   0  0  0  0  0  0  0  0  0  0  0  0
    1.5248    1.5779    1.0685 H   0  0  0  0  0  0  0  0  0  0  0  0
    1.9834    0.1950    2.0344 H   0  0  0  0  0  0  0  0  0  0  0  0
   -0.4767    0.2101   -0.8846 H   0  0  0  0  0  0  0  0  0  0  0  0
   -0.7223    1.7108    0.0185 H   0  0  0  0  0  0  0  0  0  0  0  0
    0.8821   -1.9323   -0.0100 H   0  0  0  0  0  0  0  0  0  0  0  0
    2.4019   -2.0242    0.8932 H   0  0  0  0  0  0  0  0  0  0  0  0
    3.9648   -0.1520   -1.0678 H   0  0  0  0  0  0  0  0  0  0  0  0
    4.0645   -0.1753    0.6972 H   0  0  0  0  0  0  0  0  0  0  0  0
   -1.9109   -1.6446    1.1355 H   0  0  0  0  0  0  0  0  0  0  0  0
   -2.1044   -1.6473   -0.6369 H   0  0  0  0  0  0  0  0  0  0  0  0
   -4.1531    0.6935   -0.7146 H   0  0  0  0  0  0  0  0  0  0  0  0
   -2.8009    0.4115   -1.8092 H   0  0  0  0  0  0  0  0  0  0  0  0
   -1.4359    0.5444    2.5301 H   0  0  0  0  0  0  0  0  0  0  0  0
    3.9062   -3.4579   -1.7246 H   0  0  0  0  0  0  0  0  0  0  0  0
    4.4480    3.1334    0.8210 H   0  0  0  0  0  0  0  0  0  0  0  0
   -5.1389   -2.9110    0.1448 H   0  0  0  0  0  0  0  0  0  0  0  0
   -2.2478    3.6795   -2.1147 H   0  0  0  0  0  0  0  0  0  0  0  0
  1 12  1  0  0  0  0
  1 36  1  0  0  0  0
  2 19  1  0  0  0  0
  2 37  1  0  0  0  0
  3 20  1  0  0  0  0
  3 38  1  0  0  0  0
  4 21  1  0  0  0  0
  4 39  1  0  0  0  0
  5 22  1  0  0  0  0
  5 40  1  0  0  0  0
  6 19  2  0  0  0  0
  7 20  2  0  0  0  0
  8 21  2  0  0  0  0
  9 22  2  0  0  0  0
 10 13  1  0  0  0  0
 10 15  1  0  0  0  0
 10 16  1  0  0  0  0
 11 14  1  0  0  0  0
 11 17  1  0  0  0  0
 11 18  1  0  0  0  0
 12 13  1  0  0  0  0
 12 14  1  0  0  0  0
 12 23  1  0  0  0  0
 13 24  1  0  0  0  0
 13 25  1  0  0  0  0
 14 26  1  0  0  0  0
 14 27  1  0  0  0  0
 15 19  1  0  0  0  0
 15 28  1  0  0  0  0
 15 29  1  0  0  0  0
 16 20  1  0  0  0  0
 16 30  1  0  0  0  0
 16 31  1  0  0  0  0
 17 21  1  0  0  0  0
 17 32  1  0  0  0  0
 17 33  1  0  0  0  0
 18 22  1  0  0  0  0
 18 34  1  0  0  0  0
 18 35  1  0  0  0  0
M  END
