DB12434
 OpenBabel07062211533D

 95100  0  0  1  0  0  0  0  0999 V2000
   -1.3578   -0.1277    1.2882 O   0  0  0  0  0  0  0  0  0  0  0  0
    6.6644    2.0153   -1.7842 O   0  0  0  0  0  0  0  0  0  0  0  0
    4.6463    2.1294   -0.7306 O   0  0  0  0  0  0  0  0  0  0  0  0
   -0.7885    2.1348    1.3214 O   0  0  0  0  0  0  0  0  0  0  0  0
   -3.1351    0.3734   -0.8561 O   0  0  0  0  0  0  0  0  0  0  0  0
   -4.1403    3.1428   -0.8270 O   0  0  0  0  0  0  0  0  0  0  0  0
   -1.9464    5.0139   -0.6236 O   0  0  0  0  0  0  0  0  0  0  0  0
   -4.8368   -0.8260    0.1972 O   0  0  0  0  0  0  0  0  0  0  0  0
    1.2611    3.8756    1.8908 O   0  0  0  0  0  0  0  0  0  0  0  0
   -4.8279    0.7722   -3.0884 O   0  0  0  0  0  0  0  0  0  0  0  0
   -6.8218   -1.3805   -3.3551 O   0  0  0  0  0  0  0  0  0  0  0  0
   -8.2106   -1.7894   -0.8530 O   0  0  0  0  0  0  0  0  0  0  0  0
   -5.8777   -1.4572    2.6618 O   0  0  0  0  0  0  0  0  0  0  0  0
    2.1713   -0.9962    1.6563 C   0  0  2  0  0  0  0  0  0  0  0  0
    2.5002   -1.8184    0.3583 C   0  0  2  0  0  0  0  0  0  0  0  0
    3.5043   -1.1360   -0.6689 C   0  0  1  0  0  0  0  0  0  0  0  0
    4.7348   -0.5684    0.1193 C   0  0  2  0  0  0  0  0  0  0  0  0
    1.0602    0.0351    1.4104 C   0  0  0  0  0  0  0  0  0  0  0  0
   -0.1544   -0.8655    1.1966 C   0  0  2  0  0  0  0  0  0  0  0  0
    3.4309   -0.3813    2.2730 C   0  0  0  0  0  0  0  0  0  0  0  0
    1.2244   -2.4143   -0.3034 C   0  0  0  0  0  0  0  0  0  0  0  0
    1.4681   -1.9052    2.7148 C   0  0  0  0  0  0  0  0  0  0  0  0
    4.3005    0.3617    1.2684 C   0  0  0  0  0  0  0  0  0  0  0  0
    5.8702    0.0316   -0.7818 C   0  0  2  0  0  0  0  0  0  0  0  0
    4.0117   -2.2360   -1.6667 C   0  0  0  0  0  0  0  0  0  0  0  0
   -0.0457   -1.5649   -0.1622 C   0  0  0  0  0  0  0  0  0  0  0  0
    0.0099   -1.8480    2.3310 C   0  0  0  0  0  0  0  0  0  0  0  0
    2.8128   -0.0377   -1.5110 C   0  0  0  0  0  0  0  0  0  0  0  0
    6.0079   -0.7305   -2.1217 C   0  0  0  0  0  0  0  0  0  0  0  0
    5.4972   -2.1597   -2.0260 C   0  0  0  0  0  0  0  0  0  0  0  0
    7.2199   -0.0393   -0.0334 C   0  0  0  0  0  0  0  0  0  0  0  0
    5.6319    1.4953   -1.0765 C   0  0  0  0  0  0  0  0  0  0  0  0
   -0.9610   -2.5348    2.9433 C   0  0  0  0  0  0  0  0  0  0  0  0
   -1.3026    1.0738    0.5198 C   0  0  2  0  0  0  0  0  0  0  0  0
   -2.7206    1.3967    0.0487 C   0  0  1  0  0  0  0  0  0  0  0  0
   -2.7771    2.7515   -0.6570 C   0  0  2  0  0  0  0  0  0  0  0  0
   -0.6840    3.3642    0.6015 C   0  0  1  0  0  0  0  0  0  0  0  0
   -2.0737    3.8327    0.1637 C   0  0  1  0  0  0  0  0  0  0  0  0
   -0.0093    4.3788    1.5193 C   0  0  0  0  0  0  0  0  0  0  0  0
   -4.5449    0.1614   -0.7888 C   0  0  2  0  0  0  0  0  0  0  0  0
   -5.0175   -0.3013   -2.1669 C   0  0  1  0  0  0  0  0  0  0  0  0
   -6.4944   -0.6962   -2.1447 C   0  0  2  0  0  0  0  0  0  0  0  0
   -6.2383   -1.0679    0.3325 C   0  0  1  0  0  0  0  0  0  0  0  0
   -6.7994   -1.6320   -0.9750 C   0  0  1  0  0  0  0  0  0  0  0  0
   -6.4276   -2.0387    1.4936 C   0  0  0  0  0  0  0  0  0  0  0  0
    3.0610   -2.6939    0.7255 H   0  0  0  0  0  0  0  0  0  0  0  0
    5.1841   -1.4447    0.6150 H   0  0  0  0  0  0  0  0  0  0  0  0
    1.2749    0.7045    0.5817 H   0  0  0  0  0  0  0  0  0  0  0  0
    0.9333    0.6709    2.2986 H   0  0  0  0  0  0  0  0  0  0  0  0
    4.0334   -1.1765    2.7327 H   0  0  0  0  0  0  0  0  0  0  0  0
    3.1633    0.3028    3.0885 H   0  0  0  0  0  0  0  0  0  0  0  0
    1.3843   -2.6594   -1.3586 H   0  0  0  0  0  0  0  0  0  0  0  0
    1.0271   -3.3828    0.1776 H   0  0  0  0  0  0  0  0  0  0  0  0
    1.8579   -2.9284    2.7024 H   0  0  0  0  0  0  0  0  0  0  0  0
    1.5896   -1.4946    3.7250 H   0  0  0  0  0  0  0  0  0  0  0  0
    3.7040    1.2148    0.9457 H   0  0  0  0  0  0  0  0  0  0  0  0
    5.1738    0.7573    1.7976 H   0  0  0  0  0  0  0  0  0  0  0  0
    3.8352   -3.2415   -1.2640 H   0  0  0  0  0  0  0  0  0  0  0  0
    3.4265   -2.1934   -2.5948 H   0  0  0  0  0  0  0  0  0  0  0  0
   -0.0708   -0.8488   -0.9884 H   0  0  0  0  0  0  0  0  0  0  0  0
   -0.9258   -2.2012   -0.3259 H   0  0  0  0  0  0  0  0  0  0  0  0
    2.5332    0.8411   -0.9341 H   0  0  0  0  0  0  0  0  0  0  0  0
    3.4446    0.3141   -2.3304 H   0  0  0  0  0  0  0  0  0  0  0  0
    1.9067   -0.4142   -1.9937 H   0  0  0  0  0  0  0  0  0  0  0  0
    5.4686   -0.2175   -2.9275 H   0  0  0  0  0  0  0  0  0  0  0  0
    7.0548   -0.7512   -2.4510 H   0  0  0  0  0  0  0  0  0  0  0  0
    5.6645   -2.6789   -2.9770 H   0  0  0  0  0  0  0  0  0  0  0  0
    6.0822   -2.7050   -1.2748 H   0  0  0  0  0  0  0  0  0  0  0  0
    8.0605    0.2909   -0.6551 H   0  0  0  0  0  0  0  0  0  0  0  0
    7.2226    0.5939    0.8605 H   0  0  0  0  0  0  0  0  0  0  0  0
    7.4413   -1.0652    0.2822 H   0  0  0  0  0  0  0  0  0  0  0  0
   -1.9961   -2.4435    2.6332 H   0  0  0  0  0  0  0  0  0  0  0  0
   -0.7361   -3.2057    3.7654 H   0  0  0  0  0  0  0  0  0  0  0  0
   -0.6804    0.9627   -0.3746 H   0  0  0  0  0  0  0  0  0  0  0  0
   -3.3784    1.4015    0.9304 H   0  0  0  0  0  0  0  0  0  0  0  0
    6.5278    2.9653   -1.9868 H   0  0  0  0  0  0  0  0  0  0  0  0
   -2.3508    2.6817   -1.6647 H   0  0  0  0  0  0  0  0  0  0  0  0
   -0.0290    3.2060   -0.2663 H   0  0  0  0  0  0  0  0  0  0  0  0
   -2.6835    4.0874    1.0392 H   0  0  0  0  0  0  0  0  0  0  0  0
   -0.5913    4.5231    2.4356 H   0  0  0  0  0  0  0  0  0  0  0  0
    0.1268    5.3433    1.0210 H   0  0  0  0  0  0  0  0  0  0  0  0
   -5.0760    1.0791   -0.5204 H   0  0  0  0  0  0  0  0  0  0  0  0
   -4.5358    3.2529    0.0545 H   0  0  0  0  0  0  0  0  0  0  0  0
   -1.3956    4.8018   -1.3965 H   0  0  0  0  0  0  0  0  0  0  0  0
   -4.4021   -1.1361   -2.5228 H   0  0  0  0  0  0  0  0  0  0  0  0
   -7.1367    0.1917   -2.1128 H   0  0  0  0  0  0  0  0  0  0  0  0
    1.6703    4.5338    2.4780 H   0  0  0  0  0  0  0  0  0  0  0  0
   -6.7319   -0.1232    0.5985 H   0  0  0  0  0  0  0  0  0  0  0  0
   -6.3759   -2.6236   -1.1763 H   0  0  0  0  0  0  0  0  0  0  0  0
   -5.3574    1.5287   -2.7833 H   0  0  0  0  0  0  0  0  0  0  0  0
   -7.4861   -2.2510    1.6717 H   0  0  0  0  0  0  0  0  0  0  0  0
   -5.8960   -2.9779    1.3073 H   0  0  0  0  0  0  0  0  0  0  0  0
   -6.2537   -2.1669   -3.4213 H   0  0  0  0  0  0  0  0  0  0  0  0
   -8.5947   -0.9170   -0.6607 H   0  0  0  0  0  0  0  0  0  0  0  0
   -6.0035   -2.0939    3.3860 H   0  0  0  0  0  0  0  0  0  0  0  0
  1 34  1  0  0  0  0
  2 32  1  0  0  0  0
  2 76  1  0  0  0  0
  3 32  2  0  0  0  0
  4 34  1  0  0  0  0
  4 37  1  0  0  0  0
  5 35  1  0  0  0  0
  5 40  1  0  0  0  0
  6 36  1  0  0  0  0
  6 83  1  0  0  0  0
  7 38  1  0  0  0  0
  7 84  1  0  0  0  0
  8 40  1  0  0  0  0
  8 43  1  0  0  0  0
  9 39  1  0  0  0  0
  9 87  1  0  0  0  0
 10 41  1  0  0  0  0
 10 90  1  0  0  0  0
 11 42  1  0  0  0  0
 11 93  1  0  0  0  0
 12 44  1  0  0  0  0
 12 94  1  0  0  0  0
 13 45  1  0  0  0  0
 13 95  1  0  0  0  0
 14 15  1  6  0  0  0
 14 18  1  0  0  0  0
 14 20  1  0  0  0  0
 14 22  1  0  0  0  0
 15 16  1  6  0  0  0
 15 21  1  0  0  0  0
 15 46  1  0  0  0  0
 16 17  1  1  0  0  0
 16 25  1  0  0  0  0
 16 28  1  0  0  0  0
 17 23  1  0  0  0  0
 17 24  1  6  0  0  0
 17 47  1  0  0  0  0
 18 19  1  0  0  0  0
 18 48  1  0  0  0  0
 18 49  1  0  0  0  0
 19  1  1  1  0  0  0
 19 26  1  0  0  0  0
 19 27  1  0  0  0  0
 20 23  1  0  0  0  0
 20 50  1  0  0  0  0
 20 51  1  0  0  0  0
 21 26  1  0  0  0  0
 21 52  1  0  0  0  0
 21 53  1  0  0  0  0
 22 27  1  0  0  0  0
 22 54  1  0  0  0  0
 22 55  1  0  0  0  0
 23 56  1  0  0  0  0
 23 57  1  0  0  0  0
 24 29  1  0  0  0  0
 24 31  1  0  0  0  0
 24 32  1  6  0  0  0
 25 30  1  0  0  0  0
 25 58  1  0  0  0  0
 25 59  1  0  0  0  0
 26 60  1  0  0  0  0
 26 61  1  0  0  0  0
 27 33  2  0  0  0  0
 28 62  1  0  0  0  0
 28 63  1  0  0  0  0
 28 64  1  0  0  0  0
 29 30  1  0  0  0  0
 29 65  1  0  0  0  0
 29 66  1  0  0  0  0
 30 67  1  0  0  0  0
 30 68  1  0  0  0  0
 31 69  1  0  0  0  0
 31 70  1  0  0  0  0
 31 71  1  0  0  0  0
 33 72  1  0  0  0  0
 33 73  1  0  0  0  0
 34 35  1  6  0  0  0
 34 74  1  0  0  0  0
 35 36  1  6  0  0  0
 35 75  1  0  0  0  0
 36 38  1  1  0  0  0
 36 77  1  0  0  0  0
 37 38  1  6  0  0  0
 37 39  1  0  0  0  0
 37 78  1  0  0  0  0
 38 79  1  1  0  0  0
 39 80  1  0  0  0  0
 39 81  1  0  0  0  0
 40 41  1  6  0  0  0
 40 82  1  0  0  0  0
 41 42  1  1  0  0  0
 41 85  1  0  0  0  0
 42 44  1  1  0  0  0
 42 86  1  0  0  0  0
 43 44  1  6  0  0  0
 43 45  1  0  0  0  0
 43 88  1  0  0  0  0
 44 89  1  6  0  0  0
 45 91  1  0  0  0  0
 45 92  1  0  0  0  0
M  END
