DB12924
 OpenBabel07062211533D

 48 51  0  0  1  0  0  0  0  0999 V2000
    4.0242   -3.2867    0.4648 O   0  0  0  0  0  0  0  0  0  0  0  0
    6.4214   -2.5695   -0.3060 O   0  0  0  0  0  0  0  0  0  0  0  0
    6.9815   -0.4832    0.4447 O   0  0  0  0  0  0  0  0  0  0  0  0
    2.9655    0.5742   -0.3059 N   0  0  0  0  0  0  0  0  0  0  0  0
   -3.8259   -0.4857   -1.4277 N   0  0  0  0  0  0  0  0  0  0  0  0
   -5.8581    0.2019   -0.4157 N   0  0  0  0  0  0  0  0  0  0  0  0
    2.7385    2.0104   -0.5921 C   0  0  0  0  0  0  0  0  0  0  0  0
    2.4831    2.9771    0.5142 C   0  0  0  0  0  0  0  0  0  0  0  0
    3.7735    3.0278   -0.2501 C   0  0  0  0  0  0  0  0  0  0  0  0
    1.9303   -0.3865   -0.1232 C   0  0  0  0  0  0  0  0  0  0  0  0
    4.2861    0.1788   -0.2178 C   0  0  0  0  0  0  0  0  0  0  0  0
    2.2682   -1.7306    0.1455 C   0  0  0  0  0  0  0  0  0  0  0  0
    0.5676   -0.0548   -0.1988 C   0  0  0  0  0  0  0  0  0  0  0  0
    4.7139   -1.0650    0.0316 C   0  0  1  0  0  0  0  0  0  0  0  0
    3.6978   -2.1289    0.2345 C   0  0  0  0  0  0  0  0  0  0  0  0
   -0.4201   -1.0261   -0.0134 C   0  0  0  0  0  0  0  0  0  0  0  0
    1.2776   -2.7029    0.3315 C   0  0  0  0  0  0  0  0  0  0  0  0
    0.0690    1.3321   -0.4775 C   0  0  0  0  0  0  0  0  0  0  0  0
   -0.0659   -2.3460    0.2511 C   0  0  0  0  0  0  0  0  0  0  0  0
   -1.8331   -0.7012   -0.0880 C   0  0  0  0  0  0  0  0  0  0  0  0
    6.1565   -1.3067    0.0902 C   0  0  0  0  0  0  0  0  0  0  0  0
   -2.5320   -0.3105    1.0439 C   0  0  0  0  0  0  0  0  0  0  0  0
   -2.5124   -0.7741   -1.2887 C   0  0  0  0  0  0  0  0  0  0  0  0
   -3.8847   -0.0055    0.9411 C   0  0  0  0  0  0  0  0  0  0  0  0
   -4.4796   -0.1079   -0.3061 C   0  0  0  0  0  0  0  0  0  0  0  0
   -4.6394    0.4146    2.1564 C   0  0  0  0  0  0  0  0  0  0  0  0
   -6.7104   -0.4105   -1.3820 C   0  0  0  0  0  0  0  0  0  0  0  0
    2.3516    2.1716   -1.5926 H   0  0  0  0  0  0  0  0  0  0  0  0
    2.5180    2.6181    1.5357 H   0  0  0  0  0  0  0  0  0  0  0  0
    1.7817    3.7852    0.3455 H   0  0  0  0  0  0  0  0  0  0  0  0
    3.9131    3.8552   -0.9379 H   0  0  0  0  0  0  0  0  0  0  0  0
    4.6542    2.8185    0.3431 H   0  0  0  0  0  0  0  0  0  0  0  0
    5.0206    0.9456   -0.4285 H   0  0  0  0  0  0  0  0  0  0  0  0
    1.5337   -3.7383    0.5386 H   0  0  0  0  0  0  0  0  0  0  0  0
    0.4366    1.7038   -1.4343 H   0  0  0  0  0  0  0  0  0  0  0  0
   -1.0117    1.4324   -0.6007 H   0  0  0  0  0  0  0  0  0  0  0  0
    0.2839    1.9895    0.3642 H   0  0  0  0  0  0  0  0  0  0  0  0
   -0.8233   -3.1128    0.3978 H   0  0  0  0  0  0  0  0  0  0  0  0
   -2.0263   -0.2416    2.0044 H   0  0  0  0  0  0  0  0  0  0  0  0
   -2.0183   -1.0731   -2.2086 H   0  0  0  0  0  0  0  0  0  0  0  0
    7.3813   -2.7702   -0.2804 H   0  0  0  0  0  0  0  0  0  0  0  0
   -4.0281    0.3311    3.0617 H   0  0  0  0  0  0  0  0  0  0  0  0
   -4.9549    1.4594    2.0692 H   0  0  0  0  0  0  0  0  0  0  0  0
   -5.5194   -0.2201    2.3062 H   0  0  0  0  0  0  0  0  0  0  0  0
   -6.2324    0.9288    0.1827 H   0  0  0  0  0  0  0  0  0  0  0  0
   -6.7000   -1.5009   -1.2832 H   0  0  0  0  0  0  0  0  0  0  0  0
   -6.4118   -0.1446   -2.4011 H   0  0  0  0  0  0  0  0  0  0  0  0
   -7.7413   -0.0722   -1.2386 H   0  0  0  0  0  0  0  0  0  0  0  0
  1 15  2  0  0  0  0
  2 21  1  0  0  0  0
  2 41  1  0  0  0  0
  3 21  2  0  0  0  0
  4  7  1  0  0  0  0
  4 10  1  0  0  0  0
  4 11  2  0  0  0  0
  5 23  2  0  0  0  0
  5 25  1  0  0  0  0
  6 25  1  0  0  0  0
  6 27  1  0  0  0  0
  6 45  1  0  0  0  0
  7  8  1  0  0  0  0
  7  9  1  0  0  0  0
  7 28  1  0  0  0  0
  8  9  1  0  0  0  0
  8 29  1  0  0  0  0
  8 30  1  0  0  0  0
  9 31  1  0  0  0  0
  9 32  1  0  0  0  0
 10 12  2  0  0  0  0
 10 13  1  0  0  0  0
 11 14  1  0  0  0  0
 11 33  1  0  0  0  0
 12 15  1  0  0  0  0
 12 17  1  0  0  0  0
 13 16  2  0  0  0  0
 13 18  1  0  0  0  0
 14 15  1  0  0  0  0
 14 21  1  6  0  0  0
 16 19  1  0  0  0  0
 16 20  1  0  0  0  0
 17 19  2  0  0  0  0
 17 34  1  0  0  0  0
 18 35  1  0  0  0  0
 18 36  1  0  0  0  0
 18 37  1  0  0  0  0
 19 38  1  0  0  0  0
 20 22  2  0  0  0  0
 20 23  1  0  0  0  0
 22 24  1  0  0  0  0
 22 39  1  0  0  0  0
 23 40  1  0  0  0  0
 24 25  2  0  0  0  0
 24 26  1  0  0  0  0
 26 42  1  0  0  0  0
 26 43  1  0  0  0  0
 26 44  1  0  0  0  0
 27 46  1  0  0  0  0
 27 47  1  0  0  0  0
 27 48  1  0  0  0  0
M  END
