DB12293
 OpenBabel07062211533D

 38 40  0  0  1  0  0  0  0  0999 V2000
    0.0140    1.3797   -0.9425 O   0  0  0  0  0  0  0  0  0  0  0  0
    2.8074    0.5795   -0.0355 N   0  0  0  0  0  0  0  0  0  0  0  0
   -0.7794    0.1932   -0.9550 C   0  0  1  0  0  0  0  0  0  0  0  0
   -0.1170   -1.0476   -0.3568 C   0  0  0  0  0  0  0  0  0  0  0  0
    1.7606    0.1989    0.9297 C   0  0  0  0  0  0  0  0  0  0  0  0
    1.0111   -1.0463    0.4929 C   0  0  0  0  0  0  0  0  0  0  0  0
    2.3924    1.6652   -0.9437 C   0  0  0  0  0  0  0  0  0  0  0  0
    1.1638    1.3224   -1.7822 C   0  0  0  0  0  0  0  0  0  0  0  0
   -2.0971    0.5293   -0.2755 C   0  0  0  0  0  0  0  0  0  0  0  0
   -0.7003   -2.2885   -0.7007 C   0  0  0  0  0  0  0  0  0  0  0  0
    1.5202   -2.2826    0.9482 C   0  0  0  0  0  0  0  0  0  0  0  0
    4.0367    0.9694    0.6611 C   0  0  0  0  0  0  0  0  0  0  0  0
   -0.1877   -3.4957   -0.2296 C   0  0  0  0  0  0  0  0  0  0  0  0
    0.9263   -3.4927    0.5954 C   0  0  0  0  0  0  0  0  0  0  0  0
   -3.2607   -0.1364   -0.6525 C   0  0  0  0  0  0  0  0  0  0  0  0
   -2.1347    1.5019    0.7205 C   0  0  0  0  0  0  0  0  0  0  0  0
   -4.4699    0.1724   -0.0295 C   0  0  0  0  0  0  0  0  0  0  0  0
   -3.3438    1.8107    1.3437 C   0  0  0  0  0  0  0  0  0  0  0  0
   -4.5114    1.1459    0.9686 C   0  0  0  0  0  0  0  0  0  0  0  0
   -1.0002   -0.0108   -2.0133 H   0  0  0  0  0  0  0  0  0  0  0  0
    1.0770    1.0215    1.1696 H   0  0  0  0  0  0  0  0  0  0  0  0
    2.2115   -0.0322    1.9064 H   0  0  0  0  0  0  0  0  0  0  0  0
    3.2152    1.8711   -1.6394 H   0  0  0  0  0  0  0  0  0  0  0  0
    2.2025    2.5825   -0.3709 H   0  0  0  0  0  0  0  0  0  0  0  0
    1.0326    2.0857   -2.5567 H   0  0  0  0  0  0  0  0  0  0  0  0
    1.2816    0.3580   -2.2911 H   0  0  0  0  0  0  0  0  0  0  0  0
   -1.5528   -2.3333   -1.3732 H   0  0  0  0  0  0  0  0  0  0  0  0
    2.3987   -2.3074    1.5904 H   0  0  0  0  0  0  0  0  0  0  0  0
    4.4140    0.1399    1.2699 H   0  0  0  0  0  0  0  0  0  0  0  0
    3.8829    1.8374    1.3123 H   0  0  0  0  0  0  0  0  0  0  0  0
    4.8295    1.2102   -0.0562 H   0  0  0  0  0  0  0  0  0  0  0  0
   -0.6528   -4.4340   -0.5167 H   0  0  0  0  0  0  0  0  0  0  0  0
    1.3378   -4.4283    0.9618 H   0  0  0  0  0  0  0  0  0  0  0  0
   -3.2574   -0.8793   -1.4440 H   0  0  0  0  0  0  0  0  0  0  0  0
   -1.2411    2.0277    1.0435 H   0  0  0  0  0  0  0  0  0  0  0  0
   -5.3802   -0.3410   -0.3252 H   0  0  0  0  0  0  0  0  0  0  0  0
   -3.3762    2.5666    2.1229 H   0  0  0  0  0  0  0  0  0  0  0  0
   -5.4530    1.3869    1.4533 H   0  0  0  0  0  0  0  0  0  0  0  0
  1  3  1  0  0  0  0
  1  8  1  0  0  0  0
  2  5  1  0  0  0  0
  2  7  1  0  0  0  0
  2 12  1  0  0  0  0
  3  4  1  0  0  0  0
  3  9  1  0  0  0  0
  3 20  1  6  0  0  0
  4  6  2  0  0  0  0
  4 10  1  0  0  0  0
  5  6  1  0  0  0  0
  5 21  1  0  0  0  0
  5 22  1  0  0  0  0
  6 11  1  0  0  0  0
  7  8  1  0  0  0  0
  7 23  1  0  0  0  0
  7 24  1  0  0  0  0
  8 25  1  0  0  0  0
  8 26  1  0  0  0  0
  9 15  2  0  0  0  0
  9 16  1  0  0  0  0
 10 13  2  0  0  0  0
 10 27  1  0  0  0  0
 11 14  2  0  0  0  0
 11 28  1  0  0  0  0
 12 29  1  0  0  0  0
 12 30  1  0  0  0  0
 12 31  1  0  0  0  0
 13 14  1  0  0  0  0
 13 32  1  0  0  0  0
 14 33  1  0  0  0  0
 15 17  1  0  0  0  0
 15 34  1  0  0  0  0
 16 18  2  0  0  0  0
 16 35  1  0  0  0  0
 17 19  2  0  0  0  0
 17 36  1  0  0  0  0
 18 19  1  0  0  0  0
 18 37  1  0  0  0  0
 19 38  1  0  0  0  0
M  END
