DB12401
 OpenBabel07062211533D

 49 51  0  0  0  0  0  0  0  0999 V2000
    9.2848    0.1560   -0.2159 Br  0  0  0  0  0  0  0  0  0  0  0  0
   -8.8010   -1.6402   -0.2671 F   0  0  0  0  0  0  0  0  0  0  0  0
    2.9140   -1.3631    1.3516 O   0  0  0  0  0  0  0  0  0  0  0  0
   -3.2413    0.4484    1.7529 O   0  0  0  0  0  0  0  0  0  0  0  0
    0.3949    0.2933   -0.6378 N   0  0  0  0  0  0  0  0  0  0  0  0
    3.1243   -0.4036    0.3049 C   0  0  0  0  0  0  0  0  0  0  0  0
    2.3830    0.8936    0.6984 C   0  0  0  0  0  0  0  0  0  0  0  0
    2.5164   -0.9382   -1.0125 C   0  0  0  0  0  0  0  0  0  0  0  0
    0.8575    0.7430    0.6796 C   0  0  0  0  0  0  0  0  0  0  0  0
    0.9838   -1.0026   -0.9903 C   0  0  0  0  0  0  0  0  0  0  0  0
   -1.0656    0.2191   -0.6708 C   0  0  0  0  0  0  0  0  0  0  0  0
    4.6424   -0.2662    0.1779 C   0  0  0  0  0  0  0  0  0  0  0  0
   -1.6719    1.5905   -0.3662 C   0  0  0  0  0  0  0  0  0  0  0  0
    5.2515    0.9654    0.4128 C   0  0  0  0  0  0  0  0  0  0  0  0
    5.4144   -1.3726   -0.1736 C   0  0  0  0  0  0  0  0  0  0  0  0
   -3.2028    1.5660   -0.3858 C   0  0  0  0  0  0  0  0  0  0  0  0
    6.6358    1.0911    0.2957 C   0  0  0  0  0  0  0  0  0  0  0  0
    6.7987   -1.2470   -0.2906 C   0  0  0  0  0  0  0  0  0  0  0  0
   -3.8066    0.6674    0.6843 C   0  0  0  0  0  0  0  0  0  0  0  0
    7.4095   -0.0150   -0.0559 C   0  0  0  0  0  0  0  0  0  0  0  0
   -5.1401    0.0513    0.4301 C   0  0  0  0  0  0  0  0  0  0  0  0
   -6.0384    0.7249   -0.3669 C   0  0  0  0  0  0  0  0  0  0  0  0
   -5.4241   -1.1689    1.0019 C   0  0  0  0  0  0  0  0  0  0  0  0
   -7.2861    0.1483   -0.6045 C   0  0  0  0  0  0  0  0  0  0  0  0
   -6.6718   -1.7456    0.7642 C   0  0  0  0  0  0  0  0  0  0  0  0
   -7.6028   -1.0871   -0.0391 C   0  0  0  0  0  0  0  0  0  0  0  0
    2.6409    1.7059    0.0055 H   0  0  0  0  0  0  0  0  0  0  0  0
    2.6767    1.2071    1.7087 H   0  0  0  0  0  0  0  0  0  0  0  0
    2.8779   -1.9513   -1.2268 H   0  0  0  0  0  0  0  0  0  0  0  0
    2.8318   -0.3005   -1.8499 H   0  0  0  0  0  0  0  0  0  0  0  0
    0.4922    1.7424    0.9276 H   0  0  0  0  0  0  0  0  0  0  0  0
    0.5254    0.0657    1.4762 H   0  0  0  0  0  0  0  0  0  0  0  0
    0.6474   -1.2991   -1.9917 H   0  0  0  0  0  0  0  0  0  0  0  0
    0.6514   -1.7880   -0.2995 H   0  0  0  0  0  0  0  0  0  0  0  0
   -1.3952   -0.0913   -1.6703 H   0  0  0  0  0  0  0  0  0  0  0  0
   -1.4293   -0.5342    0.0384 H   0  0  0  0  0  0  0  0  0  0  0  0
   -1.3193    2.3260   -1.0998 H   0  0  0  0  0  0  0  0  0  0  0  0
   -1.3984    1.9600    0.6254 H   0  0  0  0  0  0  0  0  0  0  0  0
    1.9668   -1.5649    1.4131 H   0  0  0  0  0  0  0  0  0  0  0  0
    4.6995    1.8541    0.6968 H   0  0  0  0  0  0  0  0  0  0  0  0
    4.9619   -2.3445   -0.3487 H   0  0  0  0  0  0  0  0  0  0  0  0
   -3.5293    1.2312   -1.3769 H   0  0  0  0  0  0  0  0  0  0  0  0
   -3.5822    2.5810   -0.2220 H   0  0  0  0  0  0  0  0  0  0  0  0
    7.0969    2.0575    0.4835 H   0  0  0  0  0  0  0  0  0  0  0  0
    7.3873   -2.1192   -0.5630 H   0  0  0  0  0  0  0  0  0  0  0  0
   -5.8234    1.6941   -0.8048 H   0  0  0  0  0  0  0  0  0  0  0  0
   -4.7068   -1.6948    1.6245 H   0  0  0  0  0  0  0  0  0  0  0  0
   -8.0128    0.6623   -1.2266 H   0  0  0  0  0  0  0  0  0  0  0  0
   -6.9183   -2.7079    1.2033 H   0  0  0  0  0  0  0  0  0  0  0  0
  1 20  1  0  0  0  0
  2 26  1  0  0  0  0
  3  6  1  0  0  0  0
  3 39  1  0  0  0  0
  4 19  2  0  0  0  0
  5  9  1  0  0  0  0
  5 10  1  0  0  0  0
  5 11  1  0  0  0  0
  6  7  1  0  0  0  0
  6  8  1  0  0  0  0
  6 12  1  0  0  0  0
  7  9  1  0  0  0  0
  7 27  1  0  0  0  0
  7 28  1  0  0  0  0
  8 10  1  0  0  0  0
  8 29  1  0  0  0  0
  8 30  1  0  0  0  0
  9 31  1  0  0  0  0
  9 32  1  0  0  0  0
 10 33  1  0  0  0  0
 10 34  1  0  0  0  0
 11 13  1  0  0  0  0
 11 35  1  0  0  0  0
 11 36  1  0  0  0  0
 12 14  2  0  0  0  0
 12 15  1  0  0  0  0
 13 16  1  0  0  0  0
 13 37  1  0  0  0  0
 13 38  1  0  0  0  0
 14 17  1  0  0  0  0
 14 40  1  0  0  0  0
 15 18  2  0  0  0  0
 15 41  1  0  0  0  0
 16 19  1  0  0  0  0
 16 42  1  0  0  0  0
 16 43  1  0  0  0  0
 17 20  2  0  0  0  0
 17 44  1  0  0  0  0
 18 20  1  0  0  0  0
 18 45  1  0  0  0  0
 19 21  1  0  0  0  0
 21 22  2  0  0  0  0
 21 23  1  0  0  0  0
 22 24  1  0  0  0  0
 22 46  1  0  0  0  0
 23 25  2  0  0  0  0
 23 47  1  0  0  0  0
 24 26  2  0  0  0  0
 24 48  1  0  0  0  0
 25 26  1  0  0  0  0
 25 49  1  0  0  0  0
M  END
