DB12713
 OpenBabel07062211533D

 53 55  0  0  1  0  0  0  0  0999 V2000
   -1.6097    4.0826    1.1232 Cl  0  0  0  0  0  0  0  0  0  0  0  0
    5.8321   -0.0028   -1.7321 S   0  0  0  0  0  0  0  0  0  0  0  0
    3.6178    0.2769   -0.2640 O   0  0  0  0  0  0  0  0  0  0  0  0
    1.4837   -1.8344    1.8454 O   0  0  0  0  0  0  0  0  0  0  0  0
    2.7661   -3.7336    0.0776 O   0  0  0  0  0  0  0  0  0  0  0  0
    5.4471   -2.8968   -0.5788 O   0  0  0  0  0  0  0  0  0  0  0  0
   -5.7689   -1.1344   -0.7908 O   0  0  0  0  0  0  0  0  0  0  0  0
    2.2092   -1.4780    0.6690 C   0  0  2  0  0  0  0  0  0  0  0  0
    3.3420   -2.4845    0.4655 C   0  0  2  0  0  0  0  0  0  0  0  0
    2.7664   -0.0579    0.8355 C   0  0  2  0  0  0  0  0  0  0  0  0
    4.3198   -2.0233   -0.6174 C   0  0  1  0  0  0  0  0  0  0  0  0
    4.7562   -0.5763   -0.3691 C   0  0  1  0  0  0  0  0  0  0  0  0
    1.6638    0.9806    0.8985 C   0  0  0  0  0  0  0  0  0  0  0  0
    0.7653    1.1092   -0.1607 C   0  0  0  0  0  0  0  0  0  0  0  0
    1.5472    1.8070    2.0162 C   0  0  0  0  0  0  0  0  0  0  0  0
   -0.2500    2.0639   -0.1019 C   0  0  0  0  0  0  0  0  0  0  0  0
    0.5322    2.7616    2.0750 C   0  0  0  0  0  0  0  0  0  0  0  0
   -1.1920    2.1710   -1.2576 C   0  0  0  0  0  0  0  0  0  0  0  0
   -0.3666    2.8901    1.0158 C   0  0  0  0  0  0  0  0  0  0  0  0
    6.1368    1.6690   -1.1223 C   0  0  0  0  0  0  0  0  0  0  0  0
   -2.4152    1.2872   -1.1331 C   0  0  0  0  0  0  0  0  0  0  0  0
   -2.3236   -0.0755   -1.4172 C   0  0  0  0  0  0  0  0  0  0  0  0
   -3.6338    1.8360   -0.7342 C   0  0  0  0  0  0  0  0  0  0  0  0
   -3.4507   -0.8891   -1.3023 C   0  0  0  0  0  0  0  0  0  0  0  0
   -4.7610    1.0224   -0.6192 C   0  0  0  0  0  0  0  0  0  0  0  0
   -4.6693   -0.3401   -0.9033 C   0  0  0  0  0  0  0  0  0  0  0  0
   -6.7441   -0.7593    0.1809 C   0  0  0  0  0  0  0  0  0  0  0  0
   -7.4463   -2.0039    0.6806 C   0  0  0  0  0  0  0  0  0  0  0  0
    1.5128   -1.5498   -0.1740 H   0  0  0  0  0  0  0  0  0  0  0  0
    3.8671   -2.6740    1.4093 H   0  0  0  0  0  0  0  0  0  0  0  0
    3.3569    0.0028    1.7602 H   0  0  0  0  0  0  0  0  0  0  0  0
    3.8471   -2.1306   -1.6017 H   0  0  0  0  0  0  0  0  0  0  0  0
    5.3516   -0.5104    0.5501 H   0  0  0  0  0  0  0  0  0  0  0  0
    0.8653    0.4784   -1.0402 H   0  0  0  0  0  0  0  0  0  0  0  0
    2.0904   -1.7760    2.6031 H   0  0  0  0  0  0  0  0  0  0  0  0
    2.3034   -3.6039   -0.7679 H   0  0  0  0  0  0  0  0  0  0  0  0
    2.2392    1.7185    2.8494 H   0  0  0  0  0  0  0  0  0  0  0  0
    5.8898   -2.7795    0.2790 H   0  0  0  0  0  0  0  0  0  0  0  0
    0.4546    3.3978    2.9531 H   0  0  0  0  0  0  0  0  0  0  0  0
   -0.6671    1.8988   -2.1852 H   0  0  0  0  0  0  0  0  0  0  0  0
   -1.4882    3.2109   -1.4432 H   0  0  0  0  0  0  0  0  0  0  0  0
    5.2125    2.2521   -1.1082 H   0  0  0  0  0  0  0  0  0  0  0  0
    6.5708    1.6397   -0.1194 H   0  0  0  0  0  0  0  0  0  0  0  0
    6.8451    2.1685   -1.7889 H   0  0  0  0  0  0  0  0  0  0  0  0
   -1.3833   -0.5174   -1.7348 H   0  0  0  0  0  0  0  0  0  0  0  0
   -3.7315    2.8981   -0.5320 H   0  0  0  0  0  0  0  0  0  0  0  0
   -3.3736   -1.9497   -1.5258 H   0  0  0  0  0  0  0  0  0  0  0  0
   -5.6970    1.4949   -0.3363 H   0  0  0  0  0  0  0  0  0  0  0  0
   -7.4720   -0.0837   -0.2820 H   0  0  0  0  0  0  0  0  0  0  0  0
   -6.2874   -0.2682    1.0493 H   0  0  0  0  0  0  0  0  0  0  0  0
   -7.9217   -2.5377   -0.1489 H   0  0  0  0  0  0  0  0  0  0  0  0
   -6.7288   -2.6957    1.1342 H   0  0  0  0  0  0  0  0  0  0  0  0
   -8.2104   -1.7518    1.4215 H   0  0  0  0  0  0  0  0  0  0  0  0
  1 19  1  0  0  0  0
  2 12  1  0  0  0  0
  2 20  1  0  0  0  0
  3 10  1  0  0  0  0
  3 12  1  0  0  0  0
  4  8  1  0  0  0  0
  4 35  1  0  0  0  0
  5  9  1  0  0  0  0
  5 36  1  0  0  0  0
  6 11  1  0  0  0  0
  6 38  1  0  0  0  0
  7 26  1  0  0  0  0
  7 27  1  0  0  0  0
  8  9  1  6  0  0  0
  8 29  1  0  0  0  0
  9 11  1  6  0  0  0
  9 30  1  0  0  0  0
 10  8  1  6  0  0  0
 10 13  1  0  0  0  0
 10 31  1  0  0  0  0
 11 12  1  1  0  0  0
 11 32  1  0  0  0  0
 12 33  1  1  0  0  0
 13 14  2  0  0  0  0
 13 15  1  0  0  0  0
 14 16  1  0  0  0  0
 14 34  1  0  0  0  0
 15 17  2  0  0  0  0
 15 37  1  0  0  0  0
 16 18  1  0  0  0  0
 16 19  2  0  0  0  0
 17 19  1  0  0  0  0
 17 39  1  0  0  0  0
 18 21  1  0  0  0  0
 18 40  1  0  0  0  0
 18 41  1  0  0  0  0
 20 42  1  0  0  0  0
 20 43  1  0  0  0  0
 20 44  1  0  0  0  0
 21 22  2  0  0  0  0
 21 23  1  0  0  0  0
 22 24  1  0  0  0  0
 22 45  1  0  0  0  0
 23 25  2  0  0  0  0
 23 46  1  0  0  0  0
 24 26  2  0  0  0  0
 24 47  1  0  0  0  0
 25 26  1  0  0  0  0
 25 48  1  0  0  0  0
 27 28  1  0  0  0  0
 27 49  1  0  0  0  0
 27 50  1  0  0  0  0
 28 51  1  0  0  0  0
 28 52  1  0  0  0  0
 28 53  1  0  0  0  0
M  END
