DB12070
 OpenBabel07062211533D

 69 73  0  0  1  0  0  0  0  0999 V2000
   -4.7290   -3.8945   -0.6250 F   0  0  0  0  0  0  0  0  0  0  0  0
    2.0064    4.4644    1.5108 F   0  0  0  0  0  0  0  0  0  0  0  0
    1.8064    3.8423   -0.5631 F   0  0  0  0  0  0  0  0  0  0  0  0
    0.1929    4.9231    0.4024 F   0  0  0  0  0  0  0  0  0  0  0  0
   -1.0972   -0.9397    2.3737 O   0  0  0  0  0  0  0  0  0  0  0  0
   -3.8755    3.6518   -1.3752 O   0  0  0  0  0  0  0  0  0  0  0  0
   -5.5545    2.2618   -2.0308 O   0  0  0  0  0  0  0  0  0  0  0  0
    6.3948    1.0782   -0.2849 O   0  0  0  0  0  0  0  0  0  0  0  0
   -0.4361   -1.5297   -1.0051 N   0  0  0  0  0  0  0  0  0  0  0  0
   -1.8900    0.1063   -0.1203 N   0  0  0  0  0  0  0  0  0  0  0  0
    2.3640   -1.4716   -0.8784 N   0  0  0  0  0  0  0  0  0  0  0  0
   -2.6964   -2.0427   -0.8256 N   0  0  0  0  0  0  0  0  0  0  0  0
    0.2969   -0.8127   -2.0420 C   0  0  0  0  0  0  0  0  0  0  0  0
    0.2626   -2.6829   -0.4491 C   0  0  0  0  0  0  0  0  0  0  0  0
   -3.2120    0.7507   -0.2896 C   0  0  2  0  0  0  0  0  0  0  0  0
   -1.7174   -1.1887   -0.6331 C   0  0  0  0  0  0  0  0  0  0  0  0
    1.6466   -0.3479   -1.4953 C   0  0  0  0  0  0  0  0  0  0  0  0
    1.6095   -2.2427    0.1224 C   0  0  0  0  0  0  0  0  0  0  0  0
   -4.2968   -0.3013   -0.1546 C   0  0  0  0  0  0  0  0  0  0  0  0
   -3.3008    1.4042   -1.6737 C   0  0  0  0  0  0  0  0  0  0  0  0
   -0.9468    0.7767    0.7043 C   0  0  0  0  0  0  0  0  0  0  0  0
   -3.9918   -1.6441   -0.4426 C   0  0  0  0  0  0  0  0  0  0  0  0
    3.7554   -1.4138   -0.7417 C   0  0  0  0  0  0  0  0  0  0  0  0
   -5.5998    0.0543    0.2187 C   0  0  0  0  0  0  0  0  0  0  0  0
   -0.5709    0.2384    1.9351 C   0  0  0  0  0  0  0  0  0  0  0  0
   -5.0000   -2.6100   -0.3521 C   0  0  0  0  0  0  0  0  0  0  0  0
   -0.3960    1.9837    0.2737 C   0  0  0  0  0  0  0  0  0  0  0  0
   -4.3854    2.4431   -1.7254 C   0  0  0  0  0  0  0  0  0  0  0  0
    4.3891   -0.1818   -0.5788 C   0  0  0  0  0  0  0  0  0  0  0  0
    4.5087   -2.5874   -0.7691 C   0  0  0  0  0  0  0  0  0  0  0  0
   -6.5935   -0.9189    0.3101 C   0  0  0  0  0  0  0  0  0  0  0  0
   -6.2941   -2.2493    0.0245 C   0  0  0  0  0  0  0  0  0  0  0  0
    0.5308    2.6522    1.0736 C   0  0  0  0  0  0  0  0  0  0  0  0
    0.3557    0.9070    2.7351 C   0  0  0  0  0  0  0  0  0  0  0  0
    0.9065    2.1139    2.3045 C   0  0  0  0  0  0  0  0  0  0  0  0
    5.7761   -0.1237   -0.4433 C   0  0  0  0  0  0  0  0  0  0  0  0
    5.8956   -2.5292   -0.6337 C   0  0  0  0  0  0  0  0  0  0  0  0
    6.5294   -1.2973   -0.4709 C   0  0  0  0  0  0  0  0  0  0  0  0
    1.1202    3.9427    0.6136 C   0  0  0  0  0  0  0  0  0  0  0  0
   -0.6544   -1.4135    3.6439 C   0  0  0  0  0  0  0  0  0  0  0  0
    5.5642    2.2383   -0.2656 C   0  0  0  0  0  0  0  0  0  0  0  0
    0.4106   -3.4292   -1.2389 H   0  0  0  0  0  0  0  0  0  0  0  0
   -0.3295   -3.1584    0.3415 H   0  0  0  0  0  0  0  0  0  0  0  0
   -0.2699    0.0489   -2.4132 H   0  0  0  0  0  0  0  0  0  0  0  0
    0.4495   -1.4839   -2.8963 H   0  0  0  0  0  0  0  0  0  0  0  0
   -3.3626    1.4962    0.5037 H   0  0  0  0  0  0  0  0  0  0  0  0
    1.4663   -1.6222    1.0136 H   0  0  0  0  0  0  0  0  0  0  0  0
    2.1520   -3.1396    0.4422 H   0  0  0  0  0  0  0  0  0  0  0  0
    2.2205    0.0651   -2.3343 H   0  0  0  0  0  0  0  0  0  0  0  0
    1.5175    0.4460   -0.7585 H   0  0  0  0  0  0  0  0  0  0  0  0
   -3.5000    0.6706   -2.4660 H   0  0  0  0  0  0  0  0  0  0  0  0
   -2.3612    1.8844   -1.9669 H   0  0  0  0  0  0  0  0  0  0  0  0
   -5.8468    1.0860    0.4534 H   0  0  0  0  0  0  0  0  0  0  0  0
   -0.6676    2.4105   -0.6867 H   0  0  0  0  0  0  0  0  0  0  0  0
    3.7742    0.7093   -0.5403 H   0  0  0  0  0  0  0  0  0  0  0  0
    4.0350   -3.5557   -0.9094 H   0  0  0  0  0  0  0  0  0  0  0  0
   -7.6011   -0.6400    0.6043 H   0  0  0  0  0  0  0  0  0  0  0  0
   -7.0690   -3.0070    0.0945 H   0  0  0  0  0  0  0  0  0  0  0  0
    0.6961    0.5504    3.7009 H   0  0  0  0  0  0  0  0  0  0  0  0
    1.6273    2.6193    2.9413 H   0  0  0  0  0  0  0  0  0  0  0  0
    6.4827   -3.4427   -0.6583 H   0  0  0  0  0  0  0  0  0  0  0  0
    7.6103   -1.2583   -0.3668 H   0  0  0  0  0  0  0  0  0  0  0  0
   -4.5577    4.3563   -1.3964 H   0  0  0  0  0  0  0  0  0  0  0  0
    0.4179   -1.6372    3.6401 H   0  0  0  0  0  0  0  0  0  0  0  0
   -0.9370   -0.7298    4.4516 H   0  0  0  0  0  0  0  0  0  0  0  0
   -1.1739   -2.3588    3.8326 H   0  0  0  0  0  0  0  0  0  0  0  0
    5.0410    2.3764   -1.2180 H   0  0  0  0  0  0  0  0  0  0  0  0
    4.8790    2.2298    0.5891 H   0  0  0  0  0  0  0  0  0  0  0  0
    6.2225    3.1038   -0.1363 H   0  0  0  0  0  0  0  0  0  0  0  0
  1 26  1  0  0  0  0
  2 39  1  0  0  0  0
  3 39  1  0  0  0  0
  4 39  1  0  0  0  0
  5 25  1  0  0  0  0
  5 40  1  0  0  0  0
  6 28  1  0  0  0  0
  6 63  1  0  0  0  0
  7 28  2  0  0  0  0
  8 36  1  0  0  0  0
  8 41  1  0  0  0  0
  9 13  1  0  0  0  0
  9 14  1  0  0  0  0
  9 16  1  0  0  0  0
 10 15  1  0  0  0  0
 10 16  1  0  0  0  0
 10 21  1  0  0  0  0
 11 17  1  0  0  0  0
 11 18  1  0  0  0  0
 11 23  1  0  0  0  0
 12 16  2  0  0  0  0
 12 22  1  0  0  0  0
 13 17  1  0  0  0  0
 13 44  1  0  0  0  0
 13 45  1  0  0  0  0
 14 18  1  0  0  0  0
 14 42  1  0  0  0  0
 14 43  1  0  0  0  0
 15 19  1  0  0  0  0
 15 20  1  0  0  0  0
 15 46  1  1  0  0  0
 17 49  1  0  0  0  0
 17 50  1  0  0  0  0
 18 47  1  0  0  0  0
 18 48  1  0  0  0  0
 19 22  2  0  0  0  0
 19 24  1  0  0  0  0
 20 28  1  0  0  0  0
 20 51  1  0  0  0  0
 20 52  1  0  0  0  0
 21 25  2  0  0  0  0
 21 27  1  0  0  0  0
 22 26  1  0  0  0  0
 23 29  2  0  0  0  0
 23 30  1  0  0  0  0
 24 31  2  0  0  0  0
 24 53  1  0  0  0  0
 25 34  1  0  0  0  0
 26 32  2  0  0  0  0
 27 33  2  0  0  0  0
 27 54  1  0  0  0  0
 29 36  1  0  0  0  0
 29 55  1  0  0  0  0
 30 37  2  0  0  0  0
 30 56  1  0  0  0  0
 31 32  1  0  0  0  0
 31 57  1  0  0  0  0
 32 58  1  0  0  0  0
 33 35  1  0  0  0  0
 33 39  1  0  0  0  0
 34 35  2  0  0  0  0
 34 59  1  0  0  0  0
 35 60  1  0  0  0  0
 36 38  2  0  0  0  0
 37 38  1  0  0  0  0
 37 61  1  0  0  0  0
 38 62  1  0  0  0  0
 40 64  1  0  0  0  0
 40 65  1  0  0  0  0
 40 66  1  0  0  0  0
 41 67  1  0  0  0  0
 41 68  1  0  0  0  0
 41 69  1  0  0  0  0
M  END
