DB12808
 OpenBabel07062211533D

 67 70  0  0  0  0  0  0  0  0999 V2000
   -0.4995    3.2903    0.6872 O   0  0  0  0  0  0  0  0  0  0  0  0
    1.6148    5.1261    0.7231 O   0  0  0  0  0  0  0  0  0  0  0  0
   -7.9644   -3.8844   -0.6857 O   0  0  0  0  0  0  0  0  0  0  0  0
   -9.4078   -2.4532    0.3316 O   0  0  0  0  0  0  0  0  0  0  0  0
    3.7512   -1.1788    1.0619 N   0  0  0  0  0  0  0  0  0  0  0  0
    4.9780   -0.3964    1.1918 C   0  0  0  0  0  0  0  0  0  0  0  0
    4.0221   -2.6142    1.0856 C   0  0  0  0  0  0  0  0  0  0  0  0
    6.0257   -1.4275    1.6051 C   0  0  0  0  0  0  0  0  0  0  0  0
    5.5393   -2.7011    0.9359 C   0  0  0  0  0  0  0  0  0  0  0  0
    2.7486   -0.6184   -1.5715 C   0  0  0  0  0  0  0  0  0  0  0  0
    2.4934   -0.6305    0.9315 C   0  0  0  0  0  0  0  0  0  0  0  0
    1.9448   -0.3347   -0.2918 C   0  0  0  0  0  0  0  0  0  0  0  0
    0.6926    0.2121   -0.4409 C   0  0  0  0  0  0  0  0  0  0  0  0
    1.7447   -0.3634    2.0778 C   0  0  0  0  0  0  0  0  0  0  0  0
    2.4436   -2.0473   -2.0709 C   0  0  0  0  0  0  0  0  0  0  0  0
    4.2794   -0.5180   -1.3834 C   0  0  0  0  0  0  0  0  0  0  0  0
    2.3566    0.3968   -2.6669 C   0  0  0  0  0  0  0  0  0  0  0  0
   -0.0561    0.4792    0.7054 C   0  0  0  0  0  0  0  0  0  0  0  0
    0.4698    0.1914    1.9647 C   0  0  0  0  0  0  0  0  0  0  0  0
   -1.3781    1.0549    0.5884 C   0  0  0  0  0  0  0  0  0  0  0  0
   -1.5598    2.4393    0.5822 C   0  0  0  0  0  0  0  0  0  0  0  0
   -2.4835    0.2090    0.4790 C   0  0  0  0  0  0  0  0  0  0  0  0
   -3.7658    0.7456    0.3643 C   0  0  0  0  0  0  0  0  0  0  0  0
   -2.8423    2.9756    0.4674 C   0  0  0  0  0  0  0  0  0  0  0  0
   -3.9455    2.1288    0.3584 C   0  0  0  0  0  0  0  0  0  0  0  0
   -4.9108   -0.1321    0.2529 C   0  0  0  0  0  0  0  0  0  0  0  0
   -0.2902    4.1988   -0.3913 C   0  0  0  0  0  0  0  0  0  0  0  0
   -6.1501    0.2717    0.7491 C   0  0  0  0  0  0  0  0  0  0  0  0
   -4.7747   -1.3825   -0.3504 C   0  0  0  0  0  0  0  0  0  0  0  0
    1.1892    4.5171   -0.4899 C   0  0  0  0  0  0  0  0  0  0  0  0
   -7.2537   -0.5748    0.6422 C   0  0  0  0  0  0  0  0  0  0  0  0
   -5.8785   -2.2289   -0.4574 C   0  0  0  0  0  0  0  0  0  0  0  0
   -7.1178   -1.8251    0.0388 C   0  0  0  0  0  0  0  0  0  0  0  0
   -8.2682   -2.7077   -0.0721 C   0  0  0  0  0  0  0  0  0  0  0  0
    5.3917    0.2251    0.4099 H   0  0  0  0  0  0  0  0  0  0  0  0
    4.8527    0.3017    2.0311 H   0  0  0  0  0  0  0  0  0  0  0  0
    3.5135   -3.2003    0.3256 H   0  0  0  0  0  0  0  0  0  0  0  0
    3.7214   -3.0143    2.0617 H   0  0  0  0  0  0  0  0  0  0  0  0
    7.0365   -1.1483    1.2944 H   0  0  0  0  0  0  0  0  0  0  0  0
    6.0272   -1.5517    2.6950 H   0  0  0  0  0  0  0  0  0  0  0  0
    5.9351   -3.5930    1.4330 H   0  0  0  0  0  0  0  0  0  0  0  0
    5.8618   -2.7600   -0.1073 H   0  0  0  0  0  0  0  0  0  0  0  0
    0.2359    0.4214   -1.4006 H   0  0  0  0  0  0  0  0  0  0  0  0
    2.1434   -0.5831    3.0651 H   0  0  0  0  0  0  0  0  0  0  0  0
    1.3834   -2.1439   -2.3370 H   0  0  0  0  0  0  0  0  0  0  0  0
    3.0218   -2.2784   -2.9733 H   0  0  0  0  0  0  0  0  0  0  0  0
    2.6448   -2.8279   -1.3441 H   0  0  0  0  0  0  0  0  0  0  0  0
    4.7809   -1.3719   -0.9733 H   0  0  0  0  0  0  0  0  0  0  0  0
    4.5451    0.4990   -1.0944 H   0  0  0  0  0  0  0  0  0  0  0  0
    4.7191   -0.5541   -2.3962 H   0  0  0  0  0  0  0  0  0  0  0  0
    2.4148    1.4315   -2.3083 H   0  0  0  0  0  0  0  0  0  0  0  0
    1.3578    0.2203   -3.0808 H   0  0  0  0  0  0  0  0  0  0  0  0
    3.0322    0.3212   -3.5285 H   0  0  0  0  0  0  0  0  0  0  0  0
   -0.1002    0.3937    2.8683 H   0  0  0  0  0  0  0  0  0  0  0  0
   -2.3171   -0.8654    0.5180 H   0  0  0  0  0  0  0  0  0  0  0  0
   -2.9991    4.0509    0.4641 H   0  0  0  0  0  0  0  0  0  0  0  0
   -4.9213    2.5923    0.2424 H   0  0  0  0  0  0  0  0  0  0  0  0
   -0.8597    5.1120   -0.1857 H   0  0  0  0  0  0  0  0  0  0  0  0
   -0.6303    3.7672   -1.3407 H   0  0  0  0  0  0  0  0  0  0  0  0
   -6.2971    1.2224    1.2541 H   0  0  0  0  0  0  0  0  0  0  0  0
   -3.8378   -1.7266   -0.7797 H   0  0  0  0  0  0  0  0  0  0  0  0
    1.7761    3.6029   -0.6202 H   0  0  0  0  0  0  0  0  0  0  0  0
    1.3982    5.1974   -1.3205 H   0  0  0  0  0  0  0  0  0  0  0  0
   -8.2094   -0.2449    1.0411 H   0  0  0  0  0  0  0  0  0  0  0  0
   -5.7302   -3.1907   -0.9403 H   0  0  0  0  0  0  0  0  0  0  0  0
    1.1087    5.9495    0.8311 H   0  0  0  0  0  0  0  0  0  0  0  0
   -8.7468   -4.4719   -0.7560 H   0  0  0  0  0  0  0  0  0  0  0  0
  1 21  1  0  0  0  0
  1 27  1  0  0  0  0
  2 30  1  0  0  0  0
  2 66  1  0  0  0  0
  3 34  1  0  0  0  0
  3 67  1  0  0  0  0
  4 34  2  0  0  0  0
  5  6  1  0  0  0  0
  5  7  1  0  0  0  0
  5 11  1  0  0  0  0
  6  8  1  0  0  0  0
  6 35  1  0  0  0  0
  6 36  1  0  0  0  0
  7  9  1  0  0  0  0
  7 37  1  0  0  0  0
  7 38  1  0  0  0  0
  8  9  1  0  0  0  0
  8 39  1  0  0  0  0
  8 40  1  0  0  0  0
  9 41  1  0  0  0  0
  9 42  1  0  0  0  0
 10 12  1  0  0  0  0
 10 15  1  0  0  0  0
 10 16  1  0  0  0  0
 10 17  1  0  0  0  0
 11 12  2  0  0  0  0
 11 14  1  0  0  0  0
 12 13  1  0  0  0  0
 13 18  2  0  0  0  0
 13 43  1  0  0  0  0
 14 19  2  0  0  0  0
 14 44  1  0  0  0  0
 15 45  1  0  0  0  0
 15 46  1  0  0  0  0
 15 47  1  0  0  0  0
 16 48  1  0  0  0  0
 16 49  1  0  0  0  0
 16 50  1  0  0  0  0
 17 51  1  0  0  0  0
 17 52  1  0  0  0  0
 17 53  1  0  0  0  0
 18 19  1  0  0  0  0
 18 20  1  0  0  0  0
 19 54  1  0  0  0  0
 20 21  2  0  0  0  0
 20 22  1  0  0  0  0
 21 24  1  0  0  0  0
 22 23  2  0  0  0  0
 22 55  1  0  0  0  0
 23 25  1  0  0  0  0
 23 26  1  0  0  0  0
 24 25  2  0  0  0  0
 24 56  1  0  0  0  0
 25 57  1  0  0  0  0
 26 28  2  0  0  0  0
 26 29  1  0  0  0  0
 27 30  1  0  0  0  0
 27 58  1  0  0  0  0
 27 59  1  0  0  0  0
 28 31  1  0  0  0  0
 28 60  1  0  0  0  0
 29 32  2  0  0  0  0
 29 61  1  0  0  0  0
 30 62  1  0  0  0  0
 30 63  1  0  0  0  0
 31 33  2  0  0  0  0
 31 64  1  0  0  0  0
 32 33  1  0  0  0  0
 32 65  1  0  0  0  0
 33 34  1  0  0  0  0
M  END
