DB12532
 OpenBabel07062211533D

 75 76  0  0  0  0  0  0  0  0999 V2000
   -3.1722    1.0003   -1.2051 O   0  0  0  0  0  0  0  0  0  0  0  0
    0.9625    1.4355   -1.4316 O   0  0  0  0  0  0  0  0  0  0  0  0
   -2.9999    5.5481   -1.7445 O   0  0  0  0  0  0  0  0  0  0  0  0
   -3.3357   -0.2501    0.7403 N   0  0  0  0  0  0  0  0  0  0  0  0
    2.2967    2.0716    0.3543 N   0  0  0  0  0  0  0  0  0  0  0  0
   -1.2478    2.6220   -0.3434 N   0  0  0  0  0  0  0  0  0  0  0  0
   -4.3906   -1.1356    0.2623 C   0  0  0  0  0  0  0  0  0  0  0  0
    3.0859    0.8533    0.4901 C   0  0  0  0  0  0  0  0  0  0  0  0
   -3.9341   -1.8902   -1.0146 C   0  0  0  0  0  0  0  0  0  0  0  0
    4.1537    0.7660   -0.6326 C   0  0  0  0  0  0  0  0  0  0  0  0
   -5.6128   -0.2723   -0.0932 C   0  0  0  0  0  0  0  0  0  0  0  0
   -4.7857   -2.1046    1.3867 C   0  0  0  0  0  0  0  0  0  0  0  0
    3.7230    0.8164    1.8872 C   0  0  0  0  0  0  0  0  0  0  0  0
    2.1355   -0.3480    0.3524 C   0  0  0  0  0  0  0  0  0  0  0  0
   -1.7054    1.6060    0.5976 C   0  0  0  0  0  0  0  0  0  0  0  0
    0.0764    3.1170    0.0365 C   0  0  0  0  0  0  0  0  0  0  0  0
   -2.7977    0.7722   -0.0515 C   0  0  0  0  0  0  0  0  0  0  0  0
    1.1359    2.1310   -0.4270 C   0  0  0  0  0  0  0  0  0  0  0  0
   -2.7339   -2.7959   -0.8540 C   0  0  0  0  0  0  0  0  0  0  0  0
    5.0173   -0.4753   -0.6289 C   0  0  0  0  0  0  0  0  0  0  0  0
   -2.8802   -0.5063    2.1047 C   0  0  0  0  0  0  0  0  0  0  0  0
    2.8042    3.2259    1.0924 C   0  0  0  0  0  0  0  0  0  0  0  0
   -2.2035    3.7289   -0.4115 C   0  0  0  0  0  0  0  0  0  0  0  0
   -1.4488   -2.2942   -1.0611 C   0  0  0  0  0  0  0  0  0  0  0  0
    6.2132   -0.4908    0.0889 C   0  0  0  0  0  0  0  0  0  0  0  0
   -2.9115   -4.1329   -0.4981 C   0  0  0  0  0  0  0  0  0  0  0  0
    4.6176   -1.6052   -1.3427 C   0  0  0  0  0  0  0  0  0  0  0  0
   -2.0437    4.4967   -1.7140 C   0  0  0  0  0  0  0  0  0  0  0  0
   -0.3417   -3.1294   -0.9128 C   0  0  0  0  0  0  0  0  0  0  0  0
    7.0097   -1.6359    0.0928 C   0  0  0  0  0  0  0  0  0  0  0  0
   -1.8041   -4.9680   -0.3496 C   0  0  0  0  0  0  0  0  0  0  0  0
    5.4142   -2.7504   -1.3388 C   0  0  0  0  0  0  0  0  0  0  0  0
   -0.5192   -4.4661   -0.5569 C   0  0  0  0  0  0  0  0  0  0  0  0
    6.6101   -2.7656   -0.6210 C   0  0  0  0  0  0  0  0  0  0  0  0
   -4.7715   -2.5058   -1.3753 H   0  0  0  0  0  0  0  0  0  0  0  0
   -3.7381   -1.2064   -1.8489 H   0  0  0  0  0  0  0  0  0  0  0  0
    3.6709    0.8506   -1.6165 H   0  0  0  0  0  0  0  0  0  0  0  0
    4.8113    1.6453   -0.5815 H   0  0  0  0  0  0  0  0  0  0  0  0
   -5.4535    0.3692   -0.9646 H   0  0  0  0  0  0  0  0  0  0  0  0
   -5.8961    0.3766    0.7441 H   0  0  0  0  0  0  0  0  0  0  0  0
   -6.4780   -0.9043   -0.3267 H   0  0  0  0  0  0  0  0  0  0  0  0
   -5.2439   -1.6006    2.2453 H   0  0  0  0  0  0  0  0  0  0  0  0
   -5.5637   -2.7855    1.0144 H   0  0  0  0  0  0  0  0  0  0  0  0
   -3.9831   -2.7571    1.7405 H   0  0  0  0  0  0  0  0  0  0  0  0
    2.9776    0.9753    2.6760 H   0  0  0  0  0  0  0  0  0  0  0  0
    4.1691   -0.1638    2.0933 H   0  0  0  0  0  0  0  0  0  0  0  0
    4.5259    1.5498    2.0155 H   0  0  0  0  0  0  0  0  0  0  0  0
    2.6122   -1.2714    0.7036 H   0  0  0  0  0  0  0  0  0  0  0  0
    1.2376   -0.2251    0.9699 H   0  0  0  0  0  0  0  0  0  0  0  0
    1.8196   -0.5455   -0.6754 H   0  0  0  0  0  0  0  0  0  0  0  0
   -0.8881    0.9154    0.8333 H   0  0  0  0  0  0  0  0  0  0  0  0
   -2.0693    2.0665    1.5235 H   0  0  0  0  0  0  0  0  0  0  0  0
    0.3247    4.0601   -0.4616 H   0  0  0  0  0  0  0  0  0  0  0  0
    0.1359    3.2885    1.1179 H   0  0  0  0  0  0  0  0  0  0  0  0
   -3.6958   -0.3561    2.8167 H   0  0  0  0  0  0  0  0  0  0  0  0
   -2.0917    0.1708    2.4323 H   0  0  0  0  0  0  0  0  0  0  0  0
   -2.4392   -1.5040    2.1776 H   0  0  0  0  0  0  0  0  0  0  0  0
    2.5667    3.1301    2.1550 H   0  0  0  0  0  0  0  0  0  0  0  0
    2.3356    4.1447    0.7281 H   0  0  0  0  0  0  0  0  0  0  0  0
    3.8800    3.3398    0.9319 H   0  0  0  0  0  0  0  0  0  0  0  0
   -2.1027    4.4059    0.4482 H   0  0  0  0  0  0  0  0  0  0  0  0
   -3.2436    3.3807   -0.3692 H   0  0  0  0  0  0  0  0  0  0  0  0
   -1.2907   -1.2598   -1.3510 H   0  0  0  0  0  0  0  0  0  0  0  0
    6.5382    0.3833    0.6468 H   0  0  0  0  0  0  0  0  0  0  0  0
   -3.9067   -4.5384   -0.3365 H   0  0  0  0  0  0  0  0  0  0  0  0
    3.6929   -1.6066   -1.9132 H   0  0  0  0  0  0  0  0  0  0  0  0
   -1.0542    4.9491   -1.8195 H   0  0  0  0  0  0  0  0  0  0  0  0
   -2.2239    3.8442   -2.5753 H   0  0  0  0  0  0  0  0  0  0  0  0
    0.6587   -2.7426   -1.0806 H   0  0  0  0  0  0  0  0  0  0  0  0
    7.9413   -1.6476    0.6510 H   0  0  0  0  0  0  0  0  0  0  0  0
   -1.9423   -6.0093   -0.0736 H   0  0  0  0  0  0  0  0  0  0  0  0
    5.1040   -3.6295   -1.8959 H   0  0  0  0  0  0  0  0  0  0  0  0
    0.3428   -5.1167   -0.4429 H   0  0  0  0  0  0  0  0  0  0  0  0
    7.2304   -3.6571   -0.6185 H   0  0  0  0  0  0  0  0  0  0  0  0
   -2.8866    6.0127   -2.5913 H   0  0  0  0  0  0  0  0  0  0  0  0
  1 17  2  0  0  0  0
  2 18  2  0  0  0  0
  3 28  1  0  0  0  0
  3 75  1  0  0  0  0
  4  7  1  0  0  0  0
  4 17  1  0  0  0  0
  4 21  1  0  0  0  0
  5  8  1  0  0  0  0
  5 18  1  0  0  0  0
  5 22  1  0  0  0  0
  6 15  1  0  0  0  0
  6 16  1  0  0  0  0
  6 23  1  0  0  0  0
  7  9  1  0  0  0  0
  7 11  1  0  0  0  0
  7 12  1  0  0  0  0
  8 10  1  0  0  0  0
  8 13  1  0  0  0  0
  8 14  1  0  0  0  0
  9 19  1  0  0  0  0
  9 35  1  0  0  0  0
  9 36  1  0  0  0  0
 10 20  1  0  0  0  0
 10 37  1  0  0  0  0
 10 38  1  0  0  0  0
 11 39  1  0  0  0  0
 11 40  1  0  0  0  0
 11 41  1  0  0  0  0
 12 42  1  0  0  0  0
 12 43  1  0  0  0  0
 12 44  1  0  0  0  0
 13 45  1  0  0  0  0
 13 46  1  0  0  0  0
 13 47  1  0  0  0  0
 14 48  1  0  0  0  0
 14 49  1  0  0  0  0
 14 50  1  0  0  0  0
 15 17  1  0  0  0  0
 15 51  1  0  0  0  0
 15 52  1  0  0  0  0
 16 18  1  0  0  0  0
 16 53  1  0  0  0  0
 16 54  1  0  0  0  0
 19 24  2  0  0  0  0
 19 26  1  0  0  0  0
 20 25  2  0  0  0  0
 20 27  1  0  0  0  0
 21 55  1  0  0  0  0
 21 56  1  0  0  0  0
 21 57  1  0  0  0  0
 22 58  1  0  0  0  0
 22 59  1  0  0  0  0
 22 60  1  0  0  0  0
 23 28  1  0  0  0  0
 23 61  1  0  0  0  0
 23 62  1  0  0  0  0
 24 29  1  0  0  0  0
 24 63  1  0  0  0  0
 25 30  1  0  0  0  0
 25 64  1  0  0  0  0
 26 31  2  0  0  0  0
 26 65  1  0  0  0  0
 27 32  2  0  0  0  0
 27 66  1  0  0  0  0
 28 67  1  0  0  0  0
 28 68  1  0  0  0  0
 29 33  2  0  0  0  0
 29 69  1  0  0  0  0
 30 34  2  0  0  0  0
 30 70  1  0  0  0  0
 31 33  1  0  0  0  0
 31 71  1  0  0  0  0
 32 34  1  0  0  0  0
 32 72  1  0  0  0  0
 33 73  1  0  0  0  0
 34 74  1  0  0  0  0
M  END
