DB12554
 OpenBabel07062211533D

 66 67  0  0  1  0  0  0  0  0999 V2000
    3.4729   -2.0565   -0.4422 O   0  0  0  0  0  0  0  0  0  0  0  0
   -8.7673    0.9745   -0.7406 O   0  0  0  0  0  0  0  0  0  0  0  0
    5.3303   -3.3154    0.0719 O   0  0  0  0  0  0  0  0  0  0  0  0
    4.9034    2.5881    0.4647 O   0  0  0  0  0  0  0  0  0  0  0  0
    7.5849    2.6509   -0.2640 O   0  0  0  0  0  0  0  0  0  0  0  0
   -1.3235   -0.5783    0.9151 N   0  0  0  0  0  0  0  0  0  0  0  0
   -2.7843   -0.6509    0.9784 C   0  0  1  0  0  0  0  0  0  0  0  0
   -0.8040   -1.5295   -0.0606 C   0  0  0  0  0  0  0  0  0  0  0  0
   -3.3604   -0.6763   -0.4490 C   0  0  0  0  0  0  0  0  0  0  0  0
    0.6545   -1.8629    0.2477 C   0  0  0  0  0  0  0  0  0  0  0  0
   -0.8966    0.7826    0.5859 C   0  0  0  0  0  0  0  0  0  0  0  0
   -3.1698   -1.8893    1.7877 C   0  0  0  0  0  0  0  0  0  0  0  0
    1.2216   -2.8522   -0.7690 C   0  0  0  0  0  0  0  0  0  0  0  0
   -4.8026   -0.2359   -0.5270 C   0  0  0  0  0  0  0  0  0  0  0  0
   -1.4310    1.7849    1.5949 C   0  0  0  0  0  0  0  0  0  0  0  0
    2.6631   -3.2245   -0.4472 C   0  0  0  0  0  0  0  0  0  0  0  0
   -5.8264   -1.1745   -0.3981 C   0  0  0  0  0  0  0  0  0  0  0  0
   -5.1111    1.1095   -0.7277 C   0  0  0  0  0  0  0  0  0  0  0  0
   -7.1587   -0.7675   -0.4698 C   0  0  0  0  0  0  0  0  0  0  0  0
   -6.4434    1.5165   -0.7996 C   0  0  0  0  0  0  0  0  0  0  0  0
   -7.4672    0.5779   -0.6707 C   0  0  0  0  0  0  0  0  0  0  0  0
    4.7932   -2.2451   -0.1670 C   0  0  0  0  0  0  0  0  0  0  0  0
    5.5257   -0.9538   -0.1909 C   0  0  0  0  0  0  0  0  0  0  0  0
    4.8683    0.2278    0.1517 C   0  0  0  0  0  0  0  0  0  0  0  0
    6.8712   -0.9221   -0.5572 C   0  0  0  0  0  0  0  0  0  0  0  0
   -9.0118    2.3649   -0.9476 C   0  0  0  0  0  0  0  0  0  0  0  0
    5.5564    1.4409    0.1283 C   0  0  0  0  0  0  0  0  0  0  0  0
    7.5593    0.2911   -0.5811 C   0  0  0  0  0  0  0  0  0  0  0  0
    6.9019    1.4725   -0.2382 C   0  0  0  0  0  0  0  0  0  0  0  0
    3.5292    2.4693    0.8271 C   0  0  0  0  0  0  0  0  0  0  0  0
    8.9570    2.5966   -0.6496 C   0  0  0  0  0  0  0  0  0  0  0  0
   -3.2177    0.1779    1.5443 H   0  0  0  0  0  0  0  0  0  0  0  0
   -0.8736   -1.1583   -1.0915 H   0  0  0  0  0  0  0  0  0  0  0  0
   -1.3374   -2.4861   -0.0327 H   0  0  0  0  0  0  0  0  0  0  0  0
   -3.2903   -1.6779   -0.8949 H   0  0  0  0  0  0  0  0  0  0  0  0
   -2.8166   -0.0171   -1.1360 H   0  0  0  0  0  0  0  0  0  0  0  0
    0.7296   -2.2915    1.2554 H   0  0  0  0  0  0  0  0  0  0  0  0
    1.2694   -0.9570    0.2390 H   0  0  0  0  0  0  0  0  0  0  0  0
    0.1960    0.8438    0.6400 H   0  0  0  0  0  0  0  0  0  0  0  0
   -1.1704    1.1011   -0.4260 H   0  0  0  0  0  0  0  0  0  0  0  0
   -2.6391   -1.9133    2.7469 H   0  0  0  0  0  0  0  0  0  0  0  0
   -4.2401   -1.8738    2.0212 H   0  0  0  0  0  0  0  0  0  0  0  0
   -2.9719   -2.8308    1.2668 H   0  0  0  0  0  0  0  0  0  0  0  0
    1.1825   -2.3961   -1.7658 H   0  0  0  0  0  0  0  0  0  0  0  0
    0.6110   -3.7617   -0.7951 H   0  0  0  0  0  0  0  0  0  0  0  0
   -2.4687    2.0712    1.3986 H   0  0  0  0  0  0  0  0  0  0  0  0
   -1.3421    1.4219    2.6247 H   0  0  0  0  0  0  0  0  0  0  0  0
   -0.8448    2.7092    1.5306 H   0  0  0  0  0  0  0  0  0  0  0  0
    2.7133   -3.7108    0.5342 H   0  0  0  0  0  0  0  0  0  0  0  0
    3.0342   -3.9222   -1.2070 H   0  0  0  0  0  0  0  0  0  0  0  0
   -5.6000   -2.2260   -0.2436 H   0  0  0  0  0  0  0  0  0  0  0  0
   -4.3216    1.8501   -0.8263 H   0  0  0  0  0  0  0  0  0  0  0  0
   -7.9519   -1.5033   -0.3690 H   0  0  0  0  0  0  0  0  0  0  0  0
   -6.6119    2.5764   -0.9562 H   0  0  0  0  0  0  0  0  0  0  0  0
    3.8275    0.1558    0.4466 H   0  0  0  0  0  0  0  0  0  0  0  0
    7.3959   -1.8342   -0.8298 H   0  0  0  0  0  0  0  0  0  0  0  0
  -10.0978    2.5010   -0.9776 H   0  0  0  0  0  0  0  0  0  0  0  0
   -8.6205    2.7029   -1.9131 H   0  0  0  0  0  0  0  0  0  0  0  0
   -8.6370    2.9679   -0.1136 H   0  0  0  0  0  0  0  0  0  0  0  0
    8.6016    0.2398   -0.8761 H   0  0  0  0  0  0  0  0  0  0  0  0
    2.9207    2.1003   -0.0060 H   0  0  0  0  0  0  0  0  0  0  0  0
    3.4008    1.8713    1.7358 H   0  0  0  0  0  0  0  0  0  0  0  0
    3.1693    3.4772    1.0588 H   0  0  0  0  0  0  0  0  0  0  0  0
    9.3422    3.6211   -0.6150 H   0  0  0  0  0  0  0  0  0  0  0  0
    9.0727    2.2486   -1.6817 H   0  0  0  0  0  0  0  0  0  0  0  0
    9.5522    2.0092    0.0579 H   0  0  0  0  0  0  0  0  0  0  0  0
  1 16  1  0  0  0  0
  1 22  1  0  0  0  0
  2 21  1  0  0  0  0
  2 26  1  0  0  0  0
  3 22  2  0  0  0  0
  4 27  1  0  0  0  0
  4 30  1  0  0  0  0
  5 29  1  0  0  0  0
  5 31  1  0  0  0  0
  6  7  1  0  0  0  0
  6  8  1  0  0  0  0
  6 11  1  0  0  0  0
  7  9  1  0  0  0  0
  7 12  1  0  0  0  0
  7 32  1  1  0  0  0
  8 10  1  0  0  0  0
  8 33  1  0  0  0  0
  8 34  1  0  0  0  0
  9 14  1  0  0  0  0
  9 35  1  0  0  0  0
  9 36  1  0  0  0  0
 10 13  1  0  0  0  0
 10 37  1  0  0  0  0
 10 38  1  0  0  0  0
 11 15  1  0  0  0  0
 11 39  1  0  0  0  0
 11 40  1  0  0  0  0
 12 41  1  0  0  0  0
 12 42  1  0  0  0  0
 12 43  1  0  0  0  0
 13 16  1  0  0  0  0
 13 44  1  0  0  0  0
 13 45  1  0  0  0  0
 14 17  2  0  0  0  0
 14 18  1  0  0  0  0
 15 46  1  0  0  0  0
 15 47  1  0  0  0  0
 15 48  1  0  0  0  0
 16 49  1  0  0  0  0
 16 50  1  0  0  0  0
 17 19  1  0  0  0  0
 17 51  1  0  0  0  0
 18 20  2  0  0  0  0
 18 52  1  0  0  0  0
 19 21  2  0  0  0  0
 19 53  1  0  0  0  0
 20 21  1  0  0  0  0
 20 54  1  0  0  0  0
 22 23  1  0  0  0  0
 23 24  2  0  0  0  0
 23 25  1  0  0  0  0
 24 27  1  0  0  0  0
 24 55  1  0  0  0  0
 25 28  2  0  0  0  0
 25 56  1  0  0  0  0
 26 57  1  0  0  0  0
 26 58  1  0  0  0  0
 26 59  1  0  0  0  0
 27 29  2  0  0  0  0
 28 29  1  0  0  0  0
 28 60  1  0  0  0  0
 30 61  1  0  0  0  0
 30 62  1  0  0  0  0
 30 63  1  0  0  0  0
 31 64  1  0  0  0  0
 31 65  1  0  0  0  0
 31 66  1  0  0  0  0
M  END
