DB12300
 OpenBabel07062211533D

 24 25  0  0  0  0  0  0  0  0999 V2000
    5.0688   -1.0973   -0.0085 O   0  0  0  0  0  0  0  0  0  0  0  0
    5.0681    1.0979    0.0019 O   0  0  0  0  0  0  0  0  0  0  0  0
    4.4603    0.0001   -0.0017 N   0  0  0  0  0  0  0  0  0  0  0  0
    0.2507   -0.0001    0.0022 C   0  0  0  0  0  0  0  0  0  0  0  0
   -1.1962    0.0004    0.0010 C   0  0  0  0  0  0  0  0  0  0  0  0
    0.9477   -1.2081   -0.0026 C   0  0  0  0  0  0  0  0  0  0  0  0
    0.9483    1.2078    0.0067 C   0  0  0  0  0  0  0  0  0  0  0  0
   -1.8925    0.0054   -1.2078 C   0  0  0  0  0  0  0  0  0  0  0  0
   -1.8950   -0.0050    1.2084 C   0  0  0  0  0  0  0  0  0  0  0  0
    3.0405   -0.0004    0.0015 C   0  0  0  0  0  0  0  0  0  0  0  0
    2.3426   -1.2084   -0.0030 C   0  0  0  0  0  0  0  0  0  0  0  0
    2.3432    1.2077    0.0063 C   0  0  0  0  0  0  0  0  0  0  0  0
   -3.2875    0.0054   -1.2093 C   0  0  0  0  0  0  0  0  0  0  0  0
   -3.2899   -0.0052    1.2067 C   0  0  0  0  0  0  0  0  0  0  0  0
   -3.9860    0.0001   -0.0021 C   0  0  0  0  0  0  0  0  0  0  0  0
    0.4190   -2.1584   -0.0066 H   0  0  0  0  0  0  0  0  0  0  0  0
    0.4197    2.1583    0.0100 H   0  0  0  0  0  0  0  0  0  0  0  0
   -1.3635    0.0094   -2.1579 H   0  0  0  0  0  0  0  0  0  0  0  0
   -1.3680   -0.0092    2.1596 H   0  0  0  0  0  0  0  0  0  0  0  0
    2.8525   -2.1683   -0.0072 H   0  0  0  0  0  0  0  0  0  0  0  0
    2.8532    2.1677    0.0093 H   0  0  0  0  0  0  0  0  0  0  0  0
   -3.8296    0.0093   -2.1504 H   0  0  0  0  0  0  0  0  0  0  0  0
   -3.8342   -0.0094    2.1466 H   0  0  0  0  0  0  0  0  0  0  0  0
   -5.0720   -0.0000   -0.0031 H   0  0  0  0  0  0  0  0  0  0  0  0
  1  3  1  0  0  0  0
  2  3  2  0  0  0  0
  3 10  1  0  0  0  0
  4  5  1  0  0  0  0
  4  6  2  0  0  0  0
  4  7  1  0  0  0  0
  5  8  2  0  0  0  0
  5  9  1  0  0  0  0
  6 11  1  0  0  0  0
  6 16  1  0  0  0  0
  7 12  2  0  0  0  0
  7 17  1  0  0  0  0
  8 13  1  0  0  0  0
  8 18  1  0  0  0  0
  9 14  2  0  0  0  0
  9 19  1  0  0  0  0
 10 11  2  0  0  0  0
 10 12  1  0  0  0  0
 11 20  1  0  0  0  0
 12 21  1  0  0  0  0
 13 15  2  0  0  0  0
 13 22  1  0  0  0  0
 14 15  1  0  0  0  0
 14 23  1  0  0  0  0
 15 24  1  0  0  0  0
M  END
