DB12474
 OpenBabel07062211533D

 49 52  0  0  1  0  0  0  0  0999 V2000
    4.5925    1.0509    0.3471 O   0  0  0  0  0  0  0  0  0  0  0  0
    1.4405   -0.7057   -0.2627 C   0  0  2  0  0  0  0  0  0  0  0  0
    2.1929    0.4873    0.3688 C   0  0  2  0  0  0  0  0  0  0  0  0
    0.0573   -0.9295    0.3544 C   0  0  1  0  0  0  0  0  0  0  0  0
   -0.8063    0.3621    0.1487 C   0  0  2  0  0  0  0  0  0  0  0  0
    1.3641    1.7609    0.1216 C   0  0  0  0  0  0  0  0  0  0  0  0
    3.5631    0.3784   -0.3662 C   0  0  2  0  0  0  0  0  0  0  0  0
    2.4595   -1.8411   -0.2063 C   0  0  0  0  0  0  0  0  0  0  0  0
   -0.0750    1.6281    0.6545 C   0  0  0  0  0  0  0  0  0  0  0  0
   -2.2040    0.1533    0.7993 C   0  0  2  0  0  0  0  0  0  0  0  0
    3.8272   -1.1504   -0.3850 C   0  0  0  0  0  0  0  0  0  0  0  0
   -0.6439   -2.1667   -0.2386 C   0  0  0  0  0  0  0  0  0  0  0  0
    2.4175    0.3420    1.9031 C   0  0  0  0  0  0  0  0  0  0  0  0
   -2.8327   -1.0688    0.1483 C   0  0  0  0  0  0  0  0  0  0  0  0
   -2.0551   -2.3435    0.3250 C   0  0  0  0  0  0  0  0  0  0  0  0
   -3.1496    1.3705    0.7546 C   0  0  0  0  0  0  0  0  0  0  0  0
   -3.8490    1.5097   -0.5923 C   0  0  0  0  0  0  0  0  0  0  0  0
    3.5354    0.9053   -1.7451 C   0  0  0  0  0  0  0  0  0  0  0  0
   -3.9526   -1.0112   -0.5926 C   0  0  0  0  0  0  0  0  0  0  0  0
   -4.6794    0.2635   -0.8983 C   0  0  0  0  0  0  0  0  0  0  0  0
    3.5133    1.3341   -2.8660 C   0  0  0  0  0  0  0  0  0  0  0  0
    1.2709   -0.4954   -1.3306 H   0  0  0  0  0  0  0  0  0  0  0  0
    0.1627   -1.1140    1.4308 H   0  0  0  0  0  0  0  0  0  0  0  0
   -0.9485    0.4965   -0.9347 H   0  0  0  0  0  0  0  0  0  0  0  0
    1.2928    1.9788   -0.9502 H   0  0  0  0  0  0  0  0  0  0  0  0
    1.8476    2.6309    0.5820 H   0  0  0  0  0  0  0  0  0  0  0  0
    2.2849   -2.5819   -0.9936 H   0  0  0  0  0  0  0  0  0  0  0  0
    2.4233   -2.3664    0.7547 H   0  0  0  0  0  0  0  0  0  0  0  0
   -0.0738    1.6442    1.7502 H   0  0  0  0  0  0  0  0  0  0  0  0
   -0.6193    2.5237    0.3344 H   0  0  0  0  0  0  0  0  0  0  0  0
   -2.0466   -0.0703    1.8642 H   0  0  0  0  0  0  0  0  0  0  0  0
    4.5013   -1.4495    0.4270 H   0  0  0  0  0  0  0  0  0  0  0  0
    4.3013   -1.4781   -1.3181 H   0  0  0  0  0  0  0  0  0  0  0  0
   -0.0624   -3.0702   -0.0221 H   0  0  0  0  0  0  0  0  0  0  0  0
   -0.6949   -2.0755   -1.3315 H   0  0  0  0  0  0  0  0  0  0  0  0
    1.4848    0.2426    2.4638 H   0  0  0  0  0  0  0  0  0  0  0  0
    3.0302   -0.5286    2.1570 H   0  0  0  0  0  0  0  0  0  0  0  0
    2.9298    1.2247    2.3036 H   0  0  0  0  0  0  0  0  0  0  0  0
   -2.0062   -2.5935    1.3918 H   0  0  0  0  0  0  0  0  0  0  0  0
   -2.5419   -3.1880   -0.1766 H   0  0  0  0  0  0  0  0  0  0  0  0
   -2.6331    2.2993    1.0106 H   0  0  0  0  0  0  0  0  0  0  0  0
   -3.9187    1.2419    1.5292 H   0  0  0  0  0  0  0  0  0  0  0  0
   -3.1053    1.6680   -1.3829 H   0  0  0  0  0  0  0  0  0  0  0  0
   -4.5005    2.3909   -0.5884 H   0  0  0  0  0  0  0  0  0  0  0  0
    4.3393    1.9865    0.4284 H   0  0  0  0  0  0  0  0  0  0  0  0
   -4.3549   -1.9180   -1.0361 H   0  0  0  0  0  0  0  0  0  0  0  0
   -4.9618    0.2764   -1.9572 H   0  0  0  0  0  0  0  0  0  0  0  0
   -5.6093    0.2815   -0.3175 H   0  0  0  0  0  0  0  0  0  0  0  0
    3.4928    1.7145   -3.8605 H   0  0  0  0  0  0  0  0  0  0  0  0
  1  7  1  0  0  0  0
  1 45  1  0  0  0  0
  2  3  1  1  0  0  0
  2  8  1  0  0  0  0
  2 22  1  0  0  0  0
  3  6  1  0  0  0  0
  3  7  1  6  0  0  0
  3 13  1  0  0  0  0
  4  2  1  6  0  0  0
  4 12  1  0  0  0  0
  4 23  1  0  0  0  0
  5  4  1  1  0  0  0
  5  9  1  0  0  0  0
  5 24  1  0  0  0  0
  6  9  1  0  0  0  0
  6 25  1  0  0  0  0
  6 26  1  0  0  0  0
  7 11  1  0  0  0  0
  7 18  1  6  0  0  0
  8 11  1  0  0  0  0
  8 27  1  0  0  0  0
  8 28  1  0  0  0  0
  9 29  1  0  0  0  0
  9 30  1  0  0  0  0
 10  5  1  6  0  0  0
 10 14  1  0  0  0  0
 10 16  1  0  0  0  0
 10 31  1  0  0  0  0
 11 32  1  0  0  0  0
 11 33  1  0  0  0  0
 12 15  1  0  0  0  0
 12 34  1  0  0  0  0
 12 35  1  0  0  0  0
 13 36  1  0  0  0  0
 13 37  1  0  0  0  0
 13 38  1  0  0  0  0
 14 15  1  0  0  0  0
 14 19  2  0  0  0  0
 15 39  1  0  0  0  0
 15 40  1  0  0  0  0
 16 17  1  0  0  0  0
 16 41  1  0  0  0  0
 16 42  1  0  0  0  0
 17 20  1  0  0  0  0
 17 43  1  0  0  0  0
 17 44  1  0  0  0  0
 18 21  3  0  0  0  0
 19 20  1  0  0  0  0
 19 46  1  0  0  0  0
 20 47  1  0  0  0  0
 20 48  1  0  0  0  0
 21 49  1  0  0  0  0
M  END
