DB12667
 OpenBabel07062211533D

 24 24  0  0  0  0  0  0  0  0999 V2000
    2.8709    2.3832   -0.4681 S   0  0  0  0  0  0  0  0  0  0  0  0
   -0.2082   -1.9709    0.1377 N   0  0  0  0  0  0  0  0  0  0  0  0
    4.3210    0.3209    0.2879 N   0  0  0  0  0  0  0  0  0  0  0  0
   -1.7231   -0.1750    0.7187 C   0  0  0  0  0  0  0  0  0  0  0  0
   -2.5032    0.2495   -0.5330 C   0  0  0  0  0  0  0  0  0  0  0  0
   -0.3468   -0.6503    0.3918 C   0  0  0  0  0  0  0  0  0  0  0  0
    0.6981    0.2592    0.3614 C   0  0  0  0  0  0  0  0  0  0  0  0
   -3.9156    0.7003   -0.1961 C   0  0  0  0  0  0  0  0  0  0  0  0
    1.9667   -0.2172    0.0502 C   0  0  0  0  0  0  0  0  0  0  0  0
    2.1492   -1.5694   -0.2174 C   0  0  0  0  0  0  0  0  0  0  0  0
    1.0395   -2.3972   -0.1610 C   0  0  0  0  0  0  0  0  0  0  0  0
    3.0986    0.6944    0.0051 C   0  0  0  0  0  0  0  0  0  0  0  0
   -2.2657   -0.9813    1.2293 H   0  0  0  0  0  0  0  0  0  0  0  0
   -1.6764    0.6558    1.4340 H   0  0  0  0  0  0  0  0  0  0  0  0
   -1.9774    1.0664   -1.0424 H   0  0  0  0  0  0  0  0  0  0  0  0
   -2.5531   -0.5852   -1.2430 H   0  0  0  0  0  0  0  0  0  0  0  0
    0.5086    1.3012    0.5956 H   0  0  0  0  0  0  0  0  0  0  0  0
   -4.4814   -0.1070    0.2798 H   0  0  0  0  0  0  0  0  0  0  0  0
   -3.9008    1.5577    0.4842 H   0  0  0  0  0  0  0  0  0  0  0  0
   -4.4465    0.9971   -1.1061 H   0  0  0  0  0  0  0  0  0  0  0  0
    3.1201   -1.9827   -0.4695 H   0  0  0  0  0  0  0  0  0  0  0  0
    1.1280   -3.4595   -0.3628 H   0  0  0  0  0  0  0  0  0  0  0  0
    4.1433    2.7904   -0.3608 H   0  0  0  0  0  0  0  0  0  0  0  0
    4.9542    1.1195    0.1844 H   0  0  0  0  0  0  0  0  0  0  0  0
  1 12  1  0  0  0  0
  1 23  1  0  0  0  0
  2  6  2  0  0  0  0
  2 11  1  0  0  0  0
  3 12  2  0  0  0  0
  3 24  1  0  0  0  0
  4  5  1  0  0  0  0
  4  6  1  0  0  0  0
  4 13  1  0  0  0  0
  4 14  1  0  0  0  0
  5  8  1  0  0  0  0
  5 15  1  0  0  0  0
  5 16  1  0  0  0  0
  6  7  1  0  0  0  0
  7  9  2  0  0  0  0
  7 17  1  0  0  0  0
  8 18  1  0  0  0  0
  8 19  1  0  0  0  0
  8 20  1  0  0  0  0
  9 10  1  0  0  0  0
  9 12  1  0  0  0  0
 10 11  2  0  0  0  0
 10 21  1  0  0  0  0
 11 22  1  0  0  0  0
M  END
