DB12612
 OpenBabel07062211533D

 54 57  0  0  1  0  0  0  0  0999 V2000
    1.3618    2.8898   -0.7618 O   0  0  0  0  0  0  0  0  0  0  0  0
   -7.9658   -3.5682   -0.5338 O   0  0  0  0  0  0  0  0  0  0  0  0
    6.3920   -0.5695    0.7527 O   0  0  0  0  0  0  0  0  0  0  0  0
   -5.9074   -0.5345   -0.2011 N   0  0  0  0  0  0  0  0  0  0  0  0
    0.1768    1.3388    0.3367 N   0  0  0  0  0  0  0  0  0  0  0  0
    0.0225    3.2915   -0.8452 N   0  0  0  0  0  0  0  0  0  0  0  0
    4.1777   -2.8454    2.4261 N   0  0  0  0  0  0  0  0  0  0  0  0
   -4.6533   -0.2581    0.4815 C   0  0  1  0  0  0  0  0  0  0  0  0
   -3.4936   -1.0624   -0.1417 C   0  0  0  0  0  0  0  0  0  0  0  0
   -2.2151   -0.2587    0.1386 C   0  0  0  0  0  0  0  0  0  0  0  0
   -4.1412    1.1452    0.3171 C   0  0  0  0  0  0  0  0  0  0  0  0
   -2.7516    1.1390    0.1280 C   0  0  0  0  0  0  0  0  0  0  0  0
   -2.0381    2.3196    0.0047 C   0  0  0  0  0  0  0  0  0  0  0  0
   -4.8388    2.3410    0.3943 C   0  0  0  0  0  0  0  0  0  0  0  0
   -6.3213   -1.9167    0.0043 C   0  0  0  0  0  0  0  0  0  0  0  0
   -2.7387    3.5257    0.0629 C   0  0  0  0  0  0  0  0  0  0  0  0
   -4.1286    3.5364    0.2570 C   0  0  0  0  0  0  0  0  0  0  0  0
   -0.6137    2.3268   -0.1740 C   0  0  0  0  0  0  0  0  0  0  0  0
   -7.6096   -2.2088   -0.7479 C   0  0  0  0  0  0  0  0  0  0  0  0
    1.3638    1.7321   -0.0506 C   0  0  0  0  0  0  0  0  0  0  0  0
    2.6513    1.1348    0.1603 C   0  0  0  0  0  0  0  0  0  0  0  0
    2.7603   -0.0548    0.8802 C   0  0  0  0  0  0  0  0  0  0  0  0
    3.7946    1.7452   -0.3555 C   0  0  0  0  0  0  0  0  0  0  0  0
    5.1557   -0.0242    0.5683 C   0  0  0  0  0  0  0  0  0  0  0  0
    4.0125   -0.6345    1.0842 C   0  0  0  0  0  0  0  0  0  0  0  0
    5.0468    1.1657   -0.1515 C   0  0  0  0  0  0  0  0  0  0  0  0
    7.1238   -0.9233   -0.4185 C   0  0  0  0  0  0  0  0  0  0  0  0
    8.4137   -0.1185   -0.4651 C   0  0  0  0  0  0  0  0  0  0  0  0
    7.3901   -2.4208   -0.4094 C   0  0  0  0  0  0  0  0  0  0  0  0
    4.1038   -1.8553    1.8251 C   0  0  0  0  0  0  0  0  0  0  0  0
   -4.7305   -0.4660    1.5570 H   0  0  0  0  0  0  0  0  0  0  0  0
   -3.4184   -2.0803    0.2555 H   0  0  0  0  0  0  0  0  0  0  0  0
   -3.6207   -1.1456   -1.2316 H   0  0  0  0  0  0  0  0  0  0  0  0
   -1.8044   -0.5046    1.1233 H   0  0  0  0  0  0  0  0  0  0  0  0
   -1.4744   -0.4459   -0.6437 H   0  0  0  0  0  0  0  0  0  0  0  0
   -6.6358    0.0860    0.1516 H   0  0  0  0  0  0  0  0  0  0  0  0
   -5.9102    2.3603    0.5627 H   0  0  0  0  0  0  0  0  0  0  0  0
   -6.4706   -2.1252    1.0714 H   0  0  0  0  0  0  0  0  0  0  0  0
   -5.5645   -2.6264   -0.3491 H   0  0  0  0  0  0  0  0  0  0  0  0
   -2.2286    4.4827   -0.0244 H   0  0  0  0  0  0  0  0  0  0  0  0
   -4.6557    4.4851    0.3110 H   0  0  0  0  0  0  0  0  0  0  0  0
   -8.4284   -1.5759   -0.3898 H   0  0  0  0  0  0  0  0  0  0  0  0
   -7.4824   -2.0501   -1.8241 H   0  0  0  0  0  0  0  0  0  0  0  0
   -8.7899   -3.7278   -1.0245 H   0  0  0  0  0  0  0  0  0  0  0  0
    1.8714   -0.5361    1.2851 H   0  0  0  0  0  0  0  0  0  0  0  0
    3.7511    2.6735   -0.9192 H   0  0  0  0  0  0  0  0  0  0  0  0
    5.9254    1.6629   -0.5517 H   0  0  0  0  0  0  0  0  0  0  0  0
    6.5500   -0.7034   -1.3292 H   0  0  0  0  0  0  0  0  0  0  0  0
    9.0231   -0.3088    0.4253 H   0  0  0  0  0  0  0  0  0  0  0  0
    7.9470   -2.7133    0.4876 H   0  0  0  0  0  0  0  0  0  0  0  0
    9.0051   -0.3668   -1.3517 H   0  0  0  0  0  0  0  0  0  0  0  0
    8.2059    0.9561   -0.4771 H   0  0  0  0  0  0  0  0  0  0  0  0
    7.9582   -2.7310   -1.2916 H   0  0  0  0  0  0  0  0  0  0  0  0
    6.4469   -2.9772   -0.3891 H   0  0  0  0  0  0  0  0  0  0  0  0
  1  6  1  0  0  0  0
  1 20  1  0  0  0  0
  2 19  1  0  0  0  0
  2 44  1  0  0  0  0
  3 24  1  0  0  0  0
  3 27  1  0  0  0  0
  4  8  1  0  0  0  0
  4 15  1  0  0  0  0
  4 36  1  0  0  0  0
  5 18  1  0  0  0  0
  5 20  2  0  0  0  0
  6 18  2  0  0  0  0
  7 30  3  0  0  0  0
  8  9  1  0  0  0  0
  8 11  1  0  0  0  0
  8 31  1  1  0  0  0
  9 10  1  0  0  0  0
  9 32  1  0  0  0  0
  9 33  1  0  0  0  0
 10 12  1  0  0  0  0
 10 34  1  0  0  0  0
 10 35  1  0  0  0  0
 11 12  2  0  0  0  0
 11 14  1  0  0  0  0
 12 13  1  0  0  0  0
 13 16  2  0  0  0  0
 13 18  1  0  0  0  0
 14 17  2  0  0  0  0
 14 37  1  0  0  0  0
 15 19  1  0  0  0  0
 15 38  1  0  0  0  0
 15 39  1  0  0  0  0
 16 17  1  0  0  0  0
 16 40  1  0  0  0  0
 17 41  1  0  0  0  0
 19 42  1  0  0  0  0
 19 43  1  0  0  0  0
 20 21  1  0  0  0  0
 21 22  2  0  0  0  0
 21 23  1  0  0  0  0
 22 25  1  0  0  0  0
 22 45  1  0  0  0  0
 23 26  2  0  0  0  0
 23 46  1  0  0  0  0
 24 25  2  0  0  0  0
 24 26  1  0  0  0  0
 25 30  1  0  0  0  0
 26 47  1  0  0  0  0
 27 28  1  0  0  0  0
 27 29  1  0  0  0  0
 27 48  1  0  0  0  0
 28 49  1  0  0  0  0
 28 51  1  0  0  0  0
 28 52  1  0  0  0  0
 29 50  1  0  0  0  0
 29 53  1  0  0  0  0
 29 54  1  0  0  0  0
M  END
