DB12537
 OpenBabel07062211533D

 19 20  0  0  0  0  0  0  0  0999 V2000
    0.8535   -1.6538    0.4166 N   0  0  0  0  0  0  0  0  0  0  0  0
    1.9528   -1.6387   -0.3721 N   0  0  0  0  0  0  0  0  0  0  0  0
   -0.0548    0.6365    0.1200 C   0  0  0  0  0  0  0  0  0  0  0  0
   -0.2206   -0.7563    0.2216 C   0  0  0  0  0  0  0  0  0  0  0  0
   -1.1809    1.4523   -0.0922 C   0  0  0  0  0  0  0  0  0  0  0  0
   -1.5168   -1.2946    0.0971 C   0  0  0  0  0  0  0  0  0  0  0  0
    1.2325    1.3039    0.3447 C   0  0  0  0  0  0  0  0  0  0  0  0
   -2.4543    0.8996   -0.2224 C   0  0  0  0  0  0  0  0  0  0  0  0
   -2.6231   -0.4754   -0.1254 C   0  0  0  0  0  0  0  0  0  0  0  0
    2.4391    0.7837    0.1074 C   0  0  0  0  0  0  0  0  0  0  0  0
    2.6311   -0.5487   -0.4955 C   0  0  0  0  0  0  0  0  0  0  0  0
   -1.0767    2.5341   -0.1538 H   0  0  0  0  0  0  0  0  0  0  0  0
   -1.6703   -2.3699    0.1663 H   0  0  0  0  0  0  0  0  0  0  0  0
    1.1841    2.3180    0.7358 H   0  0  0  0  0  0  0  0  0  0  0  0
   -3.3121    1.5439   -0.3902 H   0  0  0  0  0  0  0  0  0  0  0  0
   -3.6126   -0.9120   -0.2218 H   0  0  0  0  0  0  0  0  0  0  0  0
    0.5631   -2.5825    0.7109 H   0  0  0  0  0  0  0  0  0  0  0  0
    3.3353    1.3683    0.2854 H   0  0  0  0  0  0  0  0  0  0  0  0
    3.5307   -0.6085   -1.1323 H   0  0  0  0  0  0  0  0  0  0  0  0
  1  2  1  0  0  0  0
  1  4  1  0  0  0  0
  1 17  1  0  0  0  0
  2 11  2  0  0  0  0
  3  4  2  0  0  0  0
  3  5  1  0  0  0  0
  3  7  1  0  0  0  0
  4  6  1  0  0  0  0
  5  8  2  0  0  0  0
  5 12  1  0  0  0  0
  6  9  2  0  0  0  0
  6 13  1  0  0  0  0
  7 10  2  0  0  0  0
  7 14  1  0  0  0  0
  8  9  1  0  0  0  0
  8 15  1  0  0  0  0
  9 16  1  0  0  0  0
 10 11  1  0  0  0  0
 10 18  1  0  0  0  0
 11 19  1  0  0  0  0
M  END
