DB12767
 OpenBabel07062211533D

 41 41  0  0  1  0  0  0  0  0999 V2000
   -1.1915   -0.9043   -0.1698 O   0  0  0  0  0  0  0  0  0  0  0  0
    0.3954    0.7371   -0.6556 O   0  0  0  0  0  0  0  0  0  0  0  0
   -4.2670    1.8273   -0.6247 O   0  0  0  0  0  0  0  0  0  0  0  0
   -3.7204   -0.7577   -1.4897 O   0  0  0  0  0  0  0  0  0  0  0  0
   -1.5601    2.7393   -0.1705 O   0  0  0  0  0  0  0  0  0  0  0  0
   -1.5097   -3.4362    0.8442 O   0  0  0  0  0  0  0  0  0  0  0  0
    2.3314   -1.0600   -1.4982 O   0  0  0  0  0  0  0  0  0  0  0  0
    2.1612    2.7912    0.1181 O   0  0  0  0  0  0  0  0  0  0  0  0
    3.6668   -1.3506    1.0029 O   0  0  0  0  0  0  0  0  0  0  0  0
    5.6266   -1.8602   -0.7517 O   0  0  0  0  0  0  0  0  0  0  0  0
   -3.2725    1.0567    0.0443 C   0  0  1  0  0  0  0  0  0  0  0  0
   -3.5731   -0.4350   -0.1054 C   0  0  2  0  0  0  0  0  0  0  0  0
   -1.8989    1.4004   -0.5311 C   0  0  2  0  0  0  0  0  0  0  0  0
   -2.4195   -1.2575    0.4790 C   0  0  1  0  0  0  0  0  0  0  0  0
   -0.8273    0.4612    0.0270 C   0  0  1  0  0  0  0  0  0  0  0  0
    1.5180    0.4754    0.1717 C   0  0  1  0  0  0  0  0  0  0  0  0
   -2.6207   -2.7562    0.2879 C   0  0  0  0  0  0  0  0  0  0  0  0
    2.7162    0.0554   -0.6933 C   0  0  1  0  0  0  0  0  0  0  0  0
    1.8150    1.7273    0.9991 C   0  0  0  0  0  0  0  0  0  0  0  0
    3.9798   -0.2955    0.1049 C   0  0  2  0  0  0  0  0  0  0  0  0
    5.1221   -0.7421   -0.7855 C   0  0  0  0  0  0  0  0  0  0  0  0
   -3.3159    1.3328    1.1053 H   0  0  0  0  0  0  0  0  0  0  0  0
   -4.5235   -0.6801    0.3805 H   0  0  0  0  0  0  0  0  0  0  0  0
   -1.9164    1.3688   -1.6265 H   0  0  0  0  0  0  0  0  0  0  0  0
   -2.3045   -1.0520    1.5515 H   0  0  0  0  0  0  0  0  0  0  0  0
   -0.7156    0.6471    1.1039 H   0  0  0  0  0  0  0  0  0  0  0  0
    1.2810   -0.3591    0.8458 H   0  0  0  0  0  0  0  0  0  0  0  0
   -2.6747   -3.0319   -0.7700 H   0  0  0  0  0  0  0  0  0  0  0  0
   -3.5294   -3.1018    0.7892 H   0  0  0  0  0  0  0  0  0  0  0  0
    2.9507    0.8512   -1.4101 H   0  0  0  0  0  0  0  0  0  0  0  0
   -4.0291    2.7643   -0.5196 H   0  0  0  0  0  0  0  0  0  0  0  0
   -1.5384    2.7944    0.8001 H   0  0  0  0  0  0  0  0  0  0  0  0
   -2.8483   -0.6901   -1.9136 H   0  0  0  0  0  0  0  0  0  0  0  0
    2.6380    1.5740    1.7016 H   0  0  0  0  0  0  0  0  0  0  0  0
    0.9450    2.0544    1.5759 H   0  0  0  0  0  0  0  0  0  0  0  0
    4.3364    0.5622    0.6829 H   0  0  0  0  0  0  0  0  0  0  0  0
   -0.7107   -3.1116    0.3947 H   0  0  0  0  0  0  0  0  0  0  0  0
    2.1360   -1.8011   -0.8993 H   0  0  0  0  0  0  0  0  0  0  0  0
    5.4970    0.0222   -1.4880 H   0  0  0  0  0  0  0  0  0  0  0  0
    1.4123    2.9218   -0.4884 H   0  0  0  0  0  0  0  0  0  0  0  0
    4.4380   -1.4814    1.5807 H   0  0  0  0  0  0  0  0  0  0  0  0
  1 14  1  0  0  0  0
  1 15  1  0  0  0  0
  2 15  1  0  0  0  0
  2 16  1  0  0  0  0
  3 11  1  0  0  0  0
  3 31  1  0  0  0  0
  4 12  1  0  0  0  0
  4 33  1  0  0  0  0
  5 13  1  0  0  0  0
  5 32  1  0  0  0  0
  6 17  1  0  0  0  0
  6 37  1  0  0  0  0
  7 18  1  0  0  0  0
  7 38  1  0  0  0  0
  8 19  1  0  0  0  0
  8 40  1  0  0  0  0
  9 20  1  0  0  0  0
  9 41  1  0  0  0  0
 10 21  2  0  0  0  0
 11 12  1  6  0  0  0
 11 22  1  0  0  0  0
 12 14  1  1  0  0  0
 12 23  1  0  0  0  0
 13 11  1  1  0  0  0
 13 24  1  0  0  0  0
 14 17  1  0  0  0  0
 14 25  1  1  0  0  0
 15 13  1  6  0  0  0
 15 26  1  0  0  0  0
 16 18  1  0  0  0  0
 16 19  1  0  0  0  0
 16 27  1  1  0  0  0
 17 28  1  0  0  0  0
 17 29  1  0  0  0  0
 18 20  1  0  0  0  0
 18 30  1  6  0  0  0
 19 34  1  0  0  0  0
 19 35  1  0  0  0  0
 20 21  1  0  0  0  0
 20 36  1  1  0  0  0
 21 39  1  0  0  0  0
M  END
