DB12938
 OpenBabel07062211533D

 36 38  0  0  0  0  0  0  0  0999 V2000
   -0.7048   -1.8801    1.0507 S   0  0  0  0  0  0  0  0  0  0  0  0
   -5.8139    1.4907   -0.7414 F   0  0  0  0  0  0  0  0  0  0  0  0
   -5.8141   -0.6752   -0.6282 F   0  0  0  0  0  0  0  0  0  0  0  0
   -5.6484    0.5058    1.1903 F   0  0  0  0  0  0  0  0  0  0  0  0
    3.0759    1.9677    1.4745 O   0  0  0  0  0  0  0  0  0  0  0  0
    1.0174   -0.1169   -1.5327 O   0  0  0  0  0  0  0  0  0  0  0  0
    0.4308   -1.2834    1.7364 O   0  0  0  0  0  0  0  0  0  0  0  0
   -1.6370   -2.7214    1.7857 O   0  0  0  0  0  0  0  0  0  0  0  0
    1.9618    2.3523    2.2107 N   0  0  0  0  0  0  0  0  0  0  0  0
    3.6272    0.6488   -0.6407 C   0  0  0  0  0  0  0  0  0  0  0  0
    5.0462    0.3505   -0.2411 C   0  0  0  0  0  0  0  0  0  0  0  0
    4.0834   -0.7757   -0.4798 C   0  0  0  0  0  0  0  0  0  0  0  0
    2.6740    1.2436    0.3988 C   0  0  0  0  0  0  0  0  0  0  0  0
    1.3341    1.1568    0.4305 C   0  0  0  0  0  0  0  0  0  0  0  0
    0.4984    0.4522   -0.5618 C   0  0  0  0  0  0  0  0  0  0  0  0
    0.9180    1.8436    1.5496 C   0  0  0  0  0  0  0  0  0  0  0  0
   -0.9523    0.4220   -0.4299 C   0  0  0  0  0  0  0  0  0  0  0  0
   -1.6010   -0.5893    0.2788 C   0  0  0  0  0  0  0  0  0  0  0  0
   -1.6942    1.4381   -1.0322 C   0  0  0  0  0  0  0  0  0  0  0  0
   -2.9919   -0.5845    0.3848 C   0  0  0  0  0  0  0  0  0  0  0  0
   -3.7338    0.4315   -0.2177 C   0  0  0  0  0  0  0  0  0  0  0  0
   -3.0849    1.4428   -0.9263 C   0  0  0  0  0  0  0  0  0  0  0  0
   -0.0826   -2.8498   -0.3027 C   0  0  0  0  0  0  0  0  0  0  0  0
   -5.2207    0.4380   -0.1043 C   0  0  0  0  0  0  0  0  0  0  0  0
    3.4874    1.0172   -1.6518 H   0  0  0  0  0  0  0  0  0  0  0  0
    5.3589    0.5331    0.7797 H   0  0  0  0  0  0  0  0  0  0  0  0
    5.8224    0.5137   -0.9792 H   0  0  0  0  0  0  0  0  0  0  0  0
    4.2101   -1.3672   -1.3783 H   0  0  0  0  0  0  0  0  0  0  0  0
    3.7433   -1.3390    0.3809 H   0  0  0  0  0  0  0  0  0  0  0  0
   -0.0741    2.0154    1.9405 H   0  0  0  0  0  0  0  0  0  0  0  0
   -1.2008    2.2320   -1.5873 H   0  0  0  0  0  0  0  0  0  0  0  0
   -3.5188   -1.3628    0.9300 H   0  0  0  0  0  0  0  0  0  0  0  0
   -3.6454    2.2427   -1.4022 H   0  0  0  0  0  0  0  0  0  0  0  0
    0.7463   -2.3473   -0.7928 H   0  0  0  0  0  0  0  0  0  0  0  0
    0.2789   -3.7949    0.1111 H   0  0  0  0  0  0  0  0  0  0  0  0
   -0.8958   -3.0513   -1.0025 H   0  0  0  0  0  0  0  0  0  0  0  0
  1  7  2  0  0  0  0
  1  8  2  0  0  0  0
  1 18  1  0  0  0  0
  1 23  1  0  0  0  0
  2 24  1  0  0  0  0
  3 24  1  0  0  0  0
  4 24  1  0  0  0  0
  5  9  1  0  0  0  0
  5 13  1  0  0  0  0
  6 15  2  0  0  0  0
  9 16  2  0  0  0  0
 10 11  1  0  0  0  0
 10 12  1  0  0  0  0
 10 13  1  0  0  0  0
 10 25  1  0  0  0  0
 11 12  1  0  0  0  0
 11 26  1  0  0  0  0
 11 27  1  0  0  0  0
 12 28  1  0  0  0  0
 12 29  1  0  0  0  0
 13 14  2  0  0  0  0
 14 15  1  0  0  0  0
 14 16  1  0  0  0  0
 15 17  1  0  0  0  0
 16 30  1  0  0  0  0
 17 18  2  0  0  0  0
 17 19  1  0  0  0  0
 18 20  1  0  0  0  0
 19 22  2  0  0  0  0
 19 31  1  0  0  0  0
 20 21  2  0  0  0  0
 20 32  1  0  0  0  0
 21 22  1  0  0  0  0
 21 24  1  0  0  0  0
 22 33  1  0  0  0  0
 23 34  1  0  0  0  0
 23 35  1  0  0  0  0
 23 36  1  0  0  0  0
M  END
