DB12615
 OpenBabel07062211533D

 89 91  0  0  1  0  0  0  0  0999 V2000
    1.6012   -0.4178    0.4634 O   0  0  0  0  0  0  0  0  0  0  0  0
   -1.0894   -1.4258    0.5149 O   0  0  0  0  0  0  0  0  0  0  0  0
    3.7175   -0.6697    1.4457 O   0  0  0  0  0  0  0  0  0  0  0  0
   -0.5913    1.3829    2.7692 O   0  0  0  0  0  0  0  0  0  0  0  0
    3.0338   -2.3884   -0.8350 O   0  0  0  0  0  0  0  0  0  0  0  0
    7.1037   -0.9132    0.0276 O   0  0  0  0  0  0  0  0  0  0  0  0
   -2.7854   -2.8985    1.2444 O   0  0  0  0  0  0  0  0  0  0  0  0
    1.2086    4.1621   -1.4483 O   0  0  0  0  0  0  0  0  0  0  0  0
    0.7911    6.5745   -0.3731 O   0  0  0  0  0  0  0  0  0  0  0  0
   -8.4603   -1.4067   -1.5218 O   0  0  0  0  0  0  0  0  0  0  0  0
    0.4251    3.0460    0.4297 N   0  0  0  0  0  0  0  0  0  0  0  0
   -2.4476    2.0123    0.5423 N   0  0  0  0  0  0  0  0  0  0  0  0
    5.3579    0.3243   -1.6912 N   0  0  0  0  0  0  0  0  0  0  0  0
    0.9236   -3.3233    1.4027 N   0  0  0  0  0  0  0  0  0  0  0  0
   -5.0869   -2.4747   -0.5070 N   0  0  0  0  0  0  0  0  0  0  0  0
   -3.3963    5.6921   -0.0473 N   0  0  0  0  0  0  0  0  0  0  0  0
    1.0030    0.7341    1.0593 C   0  0  1  0  0  0  0  0  0  0  0  0
    0.6240    1.7058   -0.0690 C   0  0  1  0  0  0  0  0  0  0  0  0
   -0.1927    0.3054    1.9269 C   0  0  2  0  0  0  0  0  0  0  0  0
   -1.4014   -0.1595    1.0993 C   0  0  1  0  0  0  0  0  0  0  0  0
   -1.8021    0.8238   -0.0165 C   0  0  2  0  0  0  0  0  0  0  0  0
   -0.5880    1.2164   -0.8761 C   0  0  0  0  0  0  0  0  0  0  0  0
    3.0039   -0.2369    0.2871 C   0  0  1  0  0  0  0  0  0  0  0  0
    4.9751   -0.9874   -1.1453 C   0  0  2  0  0  0  0  0  0  0  0  0
    3.4470   -1.0258   -0.9533 C   0  0  1  0  0  0  0  0  0  0  0  0
    5.7254   -1.2664    0.1872 C   0  0  2  0  0  0  0  0  0  0  0  0
    5.1217   -0.4398    1.3316 C   0  0  0  0  0  0  0  0  0  0  0  0
   -1.4137   -2.4971    1.4006 C   0  0  1  0  0  0  0  0  0  0  0  0
    5.7019   -2.7606    0.5494 C   0  0  0  0  0  0  0  0  0  0  0  0
   -0.4714   -3.6873    1.1734 C   0  0  1  0  0  0  0  0  0  0  0  0
    0.7387    4.1715   -0.3124 C   0  0  0  0  0  0  0  0  0  0  0  0
   -0.6536   -4.2321   -0.2462 C   0  0  0  0  0  0  0  0  0  0  0  0
    0.4116    5.4654    0.4246 C   0  0  2  0  0  0  0  0  0  0  0  0
    5.1099    0.3741   -3.1221 C   0  0  0  0  0  0  0  0  0  0  0  0
   -3.0552   -3.6761    0.1323 C   0  0  0  0  0  0  0  0  0  0  0  0
   -2.1081   -4.2899   -0.5986 C   0  0  0  0  0  0  0  0  0  0  0  0
   -1.0758    5.5824    0.7789 C   0  0  0  0  0  0  0  0  0  0  0  0
   -4.5119   -3.7734   -0.1919 C   0  0  0  0  0  0  0  0  0  0  0  0
   -1.9978    5.5632   -0.4460 C   0  0  0  0  0  0  0  0  0  0  0  0
   -6.5030   -2.5944   -0.8292 C   0  0  0  0  0  0  0  0  0  0  0  0
   -7.0858   -1.2399   -1.1994 C   0  0  0  0  0  0  0  0  0  0  0  0
    1.7257    1.2216    1.7303 H   0  0  0  0  0  0  0  0  0  0  0  0
    1.4526    1.7626   -0.7857 H   0  0  0  0  0  0  0  0  0  0  0  0
    0.1484   -0.5033    2.5831 H   0  0  0  0  0  0  0  0  0  0  0  0
   -2.2777   -0.2724    1.7546 H   0  0  0  0  0  0  0  0  0  0  0  0
   -2.5266    0.3289   -0.6760 H   0  0  0  0  0  0  0  0  0  0  0  0
   -0.2826    0.3341   -1.4550 H   0  0  0  0  0  0  0  0  0  0  0  0
   -0.8828    1.9713   -1.6170 H   0  0  0  0  0  0  0  0  0  0  0  0
    3.2351    0.8235    0.1189 H   0  0  0  0  0  0  0  0  0  0  0  0
    5.2895   -1.7662   -1.8544 H   0  0  0  0  0  0  0  0  0  0  0  0
    2.9025   -0.6434   -1.8227 H   0  0  0  0  0  0  0  0  0  0  0  0
    0.0155    3.1517    1.3527 H   0  0  0  0  0  0  0  0  0  0  0  0
    5.5862   -0.7117    2.2866 H   0  0  0  0  0  0  0  0  0  0  0  0
    5.3148    0.6326    1.2012 H   0  0  0  0  0  0  0  0  0  0  0  0
   -3.2776    1.7385    1.0665 H   0  0  0  0  0  0  0  0  0  0  0  0
   -2.7722    2.6122   -0.2145 H   0  0  0  0  0  0  0  0  0  0  0  0
   -1.3064   -2.1842    2.4471 H   0  0  0  0  0  0  0  0  0  0  0  0
   -1.3086    1.0603    3.3410 H   0  0  0  0  0  0  0  0  0  0  0  0
    6.0918   -3.3667   -0.2760 H   0  0  0  0  0  0  0  0  0  0  0  0
    4.7040   -3.1233    0.8076 H   0  0  0  0  0  0  0  0  0  0  0  0
    6.3559   -2.9591    1.4072 H   0  0  0  0  0  0  0  0  0  0  0  0
    6.3541    0.4744   -1.5311 H   0  0  0  0  0  0  0  0  0  0  0  0
   -0.7441   -4.4823    1.8811 H   0  0  0  0  0  0  0  0  0  0  0  0
    3.2843   -2.8440   -1.6568 H   0  0  0  0  0  0  0  0  0  0  0  0
    7.5463   -1.0314    0.8854 H   0  0  0  0  0  0  0  0  0  0  0  0
   -0.2170   -5.2353   -0.3171 H   0  0  0  0  0  0  0  0  0  0  0  0
   -0.1422   -3.6029   -0.9858 H   0  0  0  0  0  0  0  0  0  0  0  0
    1.0158    5.4882    1.3394 H   0  0  0  0  0  0  0  0  0  0  0  0
    5.4462    1.3427   -3.5068 H   0  0  0  0  0  0  0  0  0  0  0  0
    4.0493    0.2902   -3.3728 H   0  0  0  0  0  0  0  0  0  0  0  0
    5.6679   -0.3997   -3.6602 H   0  0  0  0  0  0  0  0  0  0  0  0
   -2.3820   -4.8686   -1.4759 H   0  0  0  0  0  0  0  0  0  0  0  0
    1.5168   -4.1443    1.2907 H   0  0  0  0  0  0  0  0  0  0  0  0
    1.0435   -3.0076    2.3641 H   0  0  0  0  0  0  0  0  0  0  0  0
   -1.3684    4.7864    1.4733 H   0  0  0  0  0  0  0  0  0  0  0  0
   -1.2305    6.5317    1.3091 H   0  0  0  0  0  0  0  0  0  0  0  0
   -5.0269   -4.2163    0.6704 H   0  0  0  0  0  0  0  0  0  0  0  0
   -4.6629   -4.4574   -1.0367 H   0  0  0  0  0  0  0  0  0  0  0  0
    0.7040    7.3735    0.1743 H   0  0  0  0  0  0  0  0  0  0  0  0
   -1.8733    4.6351   -1.0124 H   0  0  0  0  0  0  0  0  0  0  0  0
   -1.7501    6.3925   -1.1169 H   0  0  0  0  0  0  0  0  0  0  0  0
   -4.9757   -1.8468    0.2894 H   0  0  0  0  0  0  0  0  0  0  0  0
   -3.6541    4.9099    0.5531 H   0  0  0  0  0  0  0  0  0  0  0  0
   -3.9900    5.6259   -0.8730 H   0  0  0  0  0  0  0  0  0  0  0  0
   -7.0633   -3.0098    0.0181 H   0  0  0  0  0  0  0  0  0  0  0  0
   -6.6518   -3.2834   -1.6702 H   0  0  0  0  0  0  0  0  0  0  0  0
   -6.5750   -0.8158   -2.0704 H   0  0  0  0  0  0  0  0  0  0  0  0
   -7.0088   -0.5352   -0.3646 H   0  0  0  0  0  0  0  0  0  0  0  0
   -8.8071   -0.5285   -1.7543 H   0  0  0  0  0  0  0  0  0  0  0  0
  1 17  1  0  0  0  0
  1 23  1  0  0  0  0
  2 20  1  0  0  0  0
  2 28  1  0  0  0  0
  3 23  1  0  0  0  0
  3 27  1  0  0  0  0
  4 19  1  0  0  0  0
  4 58  1  0  0  0  0
  5 25  1  0  0  0  0
  5 64  1  0  0  0  0
  6 26  1  0  0  0  0
  6 65  1  0  0  0  0
  7 28  1  0  0  0  0
  7 35  1  0  0  0  0
  8 31  2  0  0  0  0
  9 33  1  0  0  0  0
  9 79  1  0  0  0  0
 10 41  1  0  0  0  0
 10 89  1  0  0  0  0
 11 18  1  0  0  0  0
 11 31  1  0  0  0  0
 11 52  1  0  0  0  0
 12 21  1  0  0  0  0
 12 55  1  0  0  0  0
 12 56  1  0  0  0  0
 13 24  1  0  0  0  0
 13 34  1  0  0  0  0
 13 62  1  0  0  0  0
 14 30  1  0  0  0  0
 14 73  1  0  0  0  0
 14 74  1  0  0  0  0
 15 38  1  0  0  0  0
 15 40  1  0  0  0  0
 15 82  1  0  0  0  0
 16 39  1  0  0  0  0
 16 83  1  0  0  0  0
 16 84  1  0  0  0  0
 17 18  1  6  0  0  0
 17 42  1  0  0  0  0
 18 22  1  0  0  0  0
 18 43  1  6  0  0  0
 19 17  1  6  0  0  0
 19 44  1  0  0  0  0
 20 19  1  1  0  0  0
 20 45  1  0  0  0  0
 21 20  1  1  0  0  0
 21 22  1  0  0  0  0
 21 46  1  0  0  0  0
 22 47  1  0  0  0  0
 22 48  1  0  0  0  0
 23 25  1  6  0  0  0
 23 49  1  0  0  0  0
 24 25  1  1  0  0  0
 24 50  1  0  0  0  0
 25 51  1  6  0  0  0
 26 24  1  6  0  0  0
 26 27  1  0  0  0  0
 26 29  1  0  0  0  0
 27 53  1  0  0  0  0
 27 54  1  0  0  0  0
 28 30  1  6  0  0  0
 28 57  1  0  0  0  0
 29 59  1  0  0  0  0
 29 60  1  0  0  0  0
 29 61  1  0  0  0  0
 30 32  1  0  0  0  0
 30 63  1  1  0  0  0
 31 33  1  0  0  0  0
 32 36  1  0  0  0  0
 32 66  1  0  0  0  0
 32 67  1  0  0  0  0
 33 37  1  0  0  0  0
 33 68  1  1  0  0  0
 34 69  1  0  0  0  0
 34 70  1  0  0  0  0
 34 71  1  0  0  0  0
 35 36  2  0  0  0  0
 35 38  1  0  0  0  0
 36 72  1  0  0  0  0
 37 39  1  0  0  0  0
 37 75  1  0  0  0  0
 37 76  1  0  0  0  0
 38 77  1  0  0  0  0
 38 78  1  0  0  0  0
 39 80  1  0  0  0  0
 39 81  1  0  0  0  0
 40 41  1  0  0  0  0
 40 85  1  0  0  0  0
 40 86  1  0  0  0  0
 41 87  1  0  0  0  0
 41 88  1  0  0  0  0
M  END
