DB13873
 OpenBabel07062211533D

 37 38  0  0  0  0  0  0  0  0999 V2000
   -6.9584    2.3319    0.0991 Cl  0  0  0  0  0  0  0  0  0  0  0  0
    2.8025   -0.2041    1.1459 O   0  0  0  0  0  0  0  0  0  0  0  0
    5.8756    1.1881   -0.0647 O   0  0  0  0  0  0  0  0  0  0  0  0
    5.2485    0.3340    1.9341 O   0  0  0  0  0  0  0  0  0  0  0  0
   -2.7081   -2.6875   -0.7068 O   0  0  0  0  0  0  0  0  0  0  0  0
    3.6301    0.3346    0.1145 C   0  0  0  0  0  0  0  0  0  0  0  0
    2.9872    1.6266   -0.3809 C   0  0  0  0  0  0  0  0  0  0  0  0
    3.7526   -0.7126   -0.9885 C   0  0  0  0  0  0  0  0  0  0  0  0
    1.5222   -0.5320    0.7939 C   0  0  0  0  0  0  0  0  0  0  0  0
    4.9778    0.6055    0.7704 C   0  0  0  0  0  0  0  0  0  0  0  0
   -1.0837   -1.2004    0.0810 C   0  0  0  0  0  0  0  0  0  0  0  0
    0.5104    0.4170    0.9053 C   0  0  0  0  0  0  0  0  0  0  0  0
    1.2403   -1.8127    0.3285 C   0  0  0  0  0  0  0  0  0  0  0  0
   -0.7957    0.0819    0.5482 C   0  0  0  0  0  0  0  0  0  0  0  0
   -0.0657   -2.1478   -0.0288 C   0  0  0  0  0  0  0  0  0  0  0  0
   -2.4460   -1.5494   -0.2906 C   0  0  0  0  0  0  0  0  0  0  0  0
   -3.5763   -0.5772   -0.1935 C   0  0  0  0  0  0  0  0  0  0  0  0
   -3.8586    0.2146   -1.2820 C   0  0  0  0  0  0  0  0  0  0  0  0
   -4.2889   -0.5129    0.9812 C   0  0  0  0  0  0  0  0  0  0  0  0
   -4.9138    1.1224   -1.1907 C   0  0  0  0  0  0  0  0  0  0  0  0
   -5.3442    0.3948    1.0724 C   0  0  0  0  0  0  0  0  0  0  0  0
   -5.6565    1.2125   -0.0135 C   0  0  0  0  0  0  0  0  0  0  0  0
    2.7543    2.3021    0.4502 H   0  0  0  0  0  0  0  0  0  0  0  0
    2.0712    1.4586   -0.9561 H   0  0  0  0  0  0  0  0  0  0  0  0
    3.6674    2.1673   -1.0496 H   0  0  0  0  0  0  0  0  0  0  0  0
    2.8292   -0.8457   -1.5606 H   0  0  0  0  0  0  0  0  0  0  0  0
    4.5200   -0.4189   -1.7147 H   0  0  0  0  0  0  0  0  0  0  0  0
    4.0533   -1.6862   -0.5850 H   0  0  0  0  0  0  0  0  0  0  0  0
    0.7152    1.4112    1.2911 H   0  0  0  0  0  0  0  0  0  0  0  0
    2.0176   -2.5681    0.2615 H   0  0  0  0  0  0  0  0  0  0  0  0
   -1.5576    0.8479    0.6546 H   0  0  0  0  0  0  0  0  0  0  0  0
   -0.2648   -3.1553   -0.3846 H   0  0  0  0  0  0  0  0  0  0  0  0
   -3.2830    0.1473   -2.2001 H   0  0  0  0  0  0  0  0  0  0  0  0
   -4.0489   -1.1478    1.8286 H   0  0  0  0  0  0  0  0  0  0  0  0
    6.7348    1.3529    0.3792 H   0  0  0  0  0  0  0  0  0  0  0  0
   -5.1458    1.7533   -2.0450 H   0  0  0  0  0  0  0  0  0  0  0  0
   -5.9143    0.4540    1.9961 H   0  0  0  0  0  0  0  0  0  0  0  0
  1 22  1  0  0  0  0
  2  6  1  0  0  0  0
  2  9  1  0  0  0  0
  3 10  1  0  0  0  0
  3 35  1  0  0  0  0
  4 10  2  0  0  0  0
  5 16  2  0  0  0  0
  6  7  1  0  0  0  0
  6  8  1  0  0  0  0
  6 10  1  0  0  0  0
  7 23  1  0  0  0  0
  7 24  1  0  0  0  0
  7 25  1  0  0  0  0
  8 26  1  0  0  0  0
  8 27  1  0  0  0  0
  8 28  1  0  0  0  0
  9 12  2  0  0  0  0
  9 13  1  0  0  0  0
 11 14  2  0  0  0  0
 11 15  1  0  0  0  0
 11 16  1  0  0  0  0
 12 14  1  0  0  0  0
 12 29  1  0  0  0  0
 13 15  2  0  0  0  0
 13 30  1  0  0  0  0
 14 31  1  0  0  0  0
 15 32  1  0  0  0  0
 16 17  1  0  0  0  0
 17 18  2  0  0  0  0
 17 19  1  0  0  0  0
 18 20  1  0  0  0  0
 18 33  1  0  0  0  0
 19 21  2  0  0  0  0
 19 34  1  0  0  0  0
 20 22  2  0  0  0  0
 20 36  1  0  0  0  0
 21 22  1  0  0  0  0
 21 37  1  0  0  0  0
M  END
