DB13947
 OpenBabel07062211533D

 98103  0  0  1  0  0  0  0  0999 V2000
    5.6326    0.7383    0.0557 O   0  0  0  0  0  0  0  0  0  0  0  0
    6.5087   -0.3332    1.9012 O   0  0  0  0  0  0  0  0  0  0  0  0
   -7.0200   -0.2306    2.2590 O   0  0  0  0  0  0  0  0  0  0  0  0
   -6.2794   -2.4196    0.0080 O   0  0  0  0  0  0  0  0  0  0  0  0
   -5.2016    1.2974    0.9350 N   0  0  0  0  0  0  0  0  0  0  0  0
   -5.8319    0.2605    0.3431 N   0  0  0  0  0  0  0  0  0  0  0  0
    2.4276    2.2126    1.0195 C   0  0  2  0  0  0  0  0  0  0  0  0
    3.2394    1.3967   -0.0059 C   0  0  2  0  0  0  0  0  0  0  0  0
    1.0697    2.6647    0.4733 C   0  0  1  0  0  0  0  0  0  0  0  0
    0.2388    1.4009    0.0849 C   0  0  1  0  0  0  0  0  0  0  0  0
   -1.2019    1.7563   -0.4504 C   0  0  2  0  0  0  0  0  0  0  0  0
    2.4512    0.1206   -0.3269 C   0  0  0  0  0  0  0  0  0  0  0  0
    1.0374    0.4439   -0.8436 C   0  0  0  0  0  0  0  0  0  0  0  0
    4.5227    1.1702    0.8189 C   0  0  2  0  0  0  0  0  0  0  0  0
    3.4221    3.2637    1.5068 C   0  0  0  0  0  0  0  0  0  0  0  0
    0.3032    3.5041    1.5030 C   0  0  0  0  0  0  0  0  0  0  0  0
    4.7751    2.5285    1.5040 C   0  0  0  0  0  0  0  0  0  0  0  0
   -1.8807    2.7336    0.5196 C   0  0  0  0  0  0  0  0  0  0  0  0
    3.5590    2.1512   -1.3210 C   0  0  0  0  0  0  0  0  0  0  0  0
   -1.0608    3.9207    0.9681 C   0  0  0  0  0  0  0  0  0  0  0  0
   -2.0262    0.4383   -0.5488 C   0  0  0  0  0  0  0  0  0  0  0  0
   -1.1521    2.4192   -1.8461 C   0  0  0  0  0  0  0  0  0  0  0  0
   -3.5232    0.6684   -0.6812 C   0  0  0  0  0  0  0  0  0  0  0  0
   -3.1415    2.5995    0.9648 C   0  0  0  0  0  0  0  0  0  0  0  0
   -4.0167    1.5145    0.4631 C   0  0  0  0  0  0  0  0  0  0  0  0
    6.5678   -0.0161    0.7211 C   0  0  0  0  0  0  0  0  0  0  0  0
    7.6652   -0.4239   -0.2369 C   0  0  0  0  0  0  0  0  0  0  0  0
    8.7063   -1.3457    0.3979 C   0  0  0  0  0  0  0  0  0  0  0  0
    9.8141   -1.7406   -0.5839 C   0  0  0  0  0  0  0  0  0  0  0  0
   -6.7479   -0.4738    1.0833 C   0  0  0  0  0  0  0  0  0  0  0  0
   10.8549   -2.6393    0.0869 C   0  0  0  0  0  0  0  0  0  0  0  0
   -7.4324   -1.5954    0.2773 C   0  0  0  0  0  0  0  0  0  0  0  0
   11.9761   -3.0114   -0.8830 C   0  0  0  0  0  0  0  0  0  0  0  0
   -8.4438   -2.4087    1.0888 C   0  0  0  0  0  0  0  0  0  0  0  0
   -8.0706   -1.1077   -1.0297 C   0  0  0  0  0  0  0  0  0  0  0  0
   12.9955   -3.9313   -0.2298 C   0  0  0  0  0  0  0  0  0  0  0  0
   -7.9950   -1.8949   -2.1786 C   0  0  0  0  0  0  0  0  0  0  0  0
   -8.1727   -3.7390    1.4083 C   0  0  0  0  0  0  0  0  0  0  0  0
   -8.7266    0.1227   -1.0692 C   0  0  0  0  0  0  0  0  0  0  0  0
   -9.6363   -1.8195    1.5089 C   0  0  0  0  0  0  0  0  0  0  0  0
   -9.0941   -4.4804    2.1478 C   0  0  0  0  0  0  0  0  0  0  0  0
   -8.5752   -1.4518   -3.3672 C   0  0  0  0  0  0  0  0  0  0  0  0
   -9.3069    0.5659   -2.2578 C   0  0  0  0  0  0  0  0  0  0  0  0
  -10.5578   -2.5608    2.2486 C   0  0  0  0  0  0  0  0  0  0  0  0
   -9.2313   -0.2213   -3.4068 C   0  0  0  0  0  0  0  0  0  0  0  0
  -10.2867   -3.8912    2.5680 C   0  0  0  0  0  0  0  0  0  0  0  0
    2.2179    1.5686    1.8903 H   0  0  0  0  0  0  0  0  0  0  0  0
    1.2285    3.2900   -0.4119 H   0  0  0  0  0  0  0  0  0  0  0  0
    0.0907    0.8410    1.0231 H   0  0  0  0  0  0  0  0  0  0  0  0
    2.3577   -0.5018    0.5725 H   0  0  0  0  0  0  0  0  0  0  0  0
    2.9848   -0.4873   -1.0676 H   0  0  0  0  0  0  0  0  0  0  0  0
    1.1150    0.8684   -1.8494 H   0  0  0  0  0  0  0  0  0  0  0  0
    0.5010   -0.5052   -0.9519 H   0  0  0  0  0  0  0  0  0  0  0  0
    4.2911    0.4282    1.5971 H   0  0  0  0  0  0  0  0  0  0  0  0
    3.1727    3.6316    2.5073 H   0  0  0  0  0  0  0  0  0  0  0  0
    3.4553    4.1280    0.8342 H   0  0  0  0  0  0  0  0  0  0  0  0
    0.8727    4.4064    1.7543 H   0  0  0  0  0  0  0  0  0  0  0  0
    0.1777    2.9376    2.4349 H   0  0  0  0  0  0  0  0  0  0  0  0
    5.5362    3.1167    0.9790 H   0  0  0  0  0  0  0  0  0  0  0  0
    5.1400    2.3746    2.5256 H   0  0  0  0  0  0  0  0  0  0  0  0
    4.1602    3.0497   -1.1500 H   0  0  0  0  0  0  0  0  0  0  0  0
    4.1304    1.5090   -2.0015 H   0  0  0  0  0  0  0  0  0  0  0  0
    2.6619    2.4672   -1.8594 H   0  0  0  0  0  0  0  0  0  0  0  0
   -1.5816    4.4936    1.7451 H   0  0  0  0  0  0  0  0  0  0  0  0
   -0.9299    4.6040    0.1200 H   0  0  0  0  0  0  0  0  0  0  0  0
   -1.8523   -0.1699    0.3502 H   0  0  0  0  0  0  0  0  0  0  0  0
   -1.6885   -0.1635   -1.4014 H   0  0  0  0  0  0  0  0  0  0  0  0
   -0.8250    1.7133   -2.6168 H   0  0  0  0  0  0  0  0  0  0  0  0
   -0.4709    3.2752   -1.8755 H   0  0  0  0  0  0  0  0  0  0  0  0
   -2.1382    2.7888   -2.1511 H   0  0  0  0  0  0  0  0  0  0  0  0
   -3.9323   -0.3448   -0.7053 H   0  0  0  0  0  0  0  0  0  0  0  0
   -3.7762    1.1623   -1.6253 H   0  0  0  0  0  0  0  0  0  0  0  0
   -3.5817    3.3002    1.6661 H   0  0  0  0  0  0  0  0  0  0  0  0
    8.1527    0.4890   -0.5971 H   0  0  0  0  0  0  0  0  0  0  0  0
    7.1994   -0.9349   -1.0874 H   0  0  0  0  0  0  0  0  0  0  0  0
    8.2115   -2.2491    0.7760 H   0  0  0  0  0  0  0  0  0  0  0  0
    9.1499   -0.8462    1.2685 H   0  0  0  0  0  0  0  0  0  0  0  0
   -5.7366    0.1313   -0.6576 H   0  0  0  0  0  0  0  0  0  0  0  0
   10.3016   -0.8360   -0.9672 H   0  0  0  0  0  0  0  0  0  0  0  0
    9.3744   -2.2611   -1.4431 H   0  0  0  0  0  0  0  0  0  0  0  0
   11.2800   -2.1254    0.9578 H   0  0  0  0  0  0  0  0  0  0  0  0
   10.3684   -3.5508    0.4553 H   0  0  0  0  0  0  0  0  0  0  0  0
   12.4816   -2.1042   -1.2338 H   0  0  0  0  0  0  0  0  0  0  0  0
   11.5561   -3.5103   -1.7641 H   0  0  0  0  0  0  0  0  0  0  0  0
   -5.7664   -2.0151   -0.7123 H   0  0  0  0  0  0  0  0  0  0  0  0
   12.5271   -4.8635    0.1018 H   0  0  0  0  0  0  0  0  0  0  0  0
   13.4577   -3.4508    0.6384 H   0  0  0  0  0  0  0  0  0  0  0  0
   13.7885   -4.1838   -0.9407 H   0  0  0  0  0  0  0  0  0  0  0  0
   -7.5002   -2.8620   -2.1699 H   0  0  0  0  0  0  0  0  0  0  0  0
   -7.2584   -4.2366    1.1000 H   0  0  0  0  0  0  0  0  0  0  0  0
   -9.8674   -0.7812    1.2951 H   0  0  0  0  0  0  0  0  0  0  0  0
   -8.7995    0.7566   -0.1901 H   0  0  0  0  0  0  0  0  0  0  0  0
   -8.8837   -5.5164    2.3967 H   0  0  0  0  0  0  0  0  0  0  0  0
   -8.5188   -2.0658   -4.2612 H   0  0  0  0  0  0  0  0  0  0  0  0
   -9.8176    1.5239   -2.2888 H   0  0  0  0  0  0  0  0  0  0  0  0
  -11.4842   -2.1010    2.5802 H   0  0  0  0  0  0  0  0  0  0  0  0
  -11.0036   -4.4682    3.1448 H   0  0  0  0  0  0  0  0  0  0  0  0
   -9.6835    0.1234   -4.3320 H   0  0  0  0  0  0  0  0  0  0  0  0
  1 14  1  0  0  0  0
  1 26  1  0  0  0  0
  2 26  2  0  0  0  0
  3 30  2  0  0  0  0
  4 32  1  0  0  0  0
  4 85  1  0  0  0  0
  5  6  1  0  0  0  0
  5 25  2  0  0  0  0
  6 30  1  0  0  0  0
  6 78  1  0  0  0  0
  7  8  1  6  0  0  0
  7 15  1  0  0  0  0
  7 47  1  0  0  0  0
  8 12  1  0  0  0  0
  8 14  1  1  0  0  0
  8 19  1  0  0  0  0
  9  7  1  1  0  0  0
  9 16  1  0  0  0  0
  9 48  1  0  0  0  0
 10  9  1  1  0  0  0
 10 13  1  0  0  0  0
 10 49  1  0  0  0  0
 11 10  1  1  0  0  0
 11 18  1  0  0  0  0
 11 21  1  0  0  0  0
 11 22  1  0  0  0  0
 12 13  1  0  0  0  0
 12 50  1  0  0  0  0
 12 51  1  0  0  0  0
 13 52  1  0  0  0  0
 13 53  1  0  0  0  0
 14 17  1  0  0  0  0
 14 54  1  1  0  0  0
 15 17  1  0  0  0  0
 15 55  1  0  0  0  0
 15 56  1  0  0  0  0
 16 20  1  0  0  0  0
 16 57  1  0  0  0  0
 16 58  1  0  0  0  0
 17 59  1  0  0  0  0
 17 60  1  0  0  0  0
 18 20  1  0  0  0  0
 18 24  2  0  0  0  0
 19 61  1  0  0  0  0
 19 62  1  0  0  0  0
 19 63  1  0  0  0  0
 20 64  1  0  0  0  0
 20 65  1  0  0  0  0
 21 23  1  0  0  0  0
 21 66  1  0  0  0  0
 21 67  1  0  0  0  0
 22 68  1  0  0  0  0
 22 69  1  0  0  0  0
 22 70  1  0  0  0  0
 23 25  1  0  0  0  0
 23 71  1  0  0  0  0
 23 72  1  0  0  0  0
 24 25  1  0  0  0  0
 24 73  1  0  0  0  0
 26 27  1  0  0  0  0
 27 28  1  0  0  0  0
 27 74  1  0  0  0  0
 27 75  1  0  0  0  0
 28 29  1  0  0  0  0
 28 76  1  0  0  0  0
 28 77  1  0  0  0  0
 29 31  1  0  0  0  0
 29 79  1  0  0  0  0
 29 80  1  0  0  0  0
 30 32  1  0  0  0  0
 31 33  1  0  0  0  0
 31 81  1  0  0  0  0
 31 82  1  0  0  0  0
 32 34  1  0  0  0  0
 32 35  1  0  0  0  0
 33 36  1  0  0  0  0
 33 83  1  0  0  0  0
 33 84  1  0  0  0  0
 34 38  2  0  0  0  0
 34 40  1  0  0  0  0
 35 37  2  0  0  0  0
 35 39  1  0  0  0  0
 36 86  1  0  0  0  0
 36 87  1  0  0  0  0
 36 88  1  0  0  0  0
 37 42  1  0  0  0  0
 37 89  1  0  0  0  0
 38 41  1  0  0  0  0
 38 90  1  0  0  0  0
 39 43  2  0  0  0  0
 39 92  1  0  0  0  0
 40 44  2  0  0  0  0
 40 91  1  0  0  0  0
 41 46  2  0  0  0  0
 41 93  1  0  0  0  0
 42 45  2  0  0  0  0
 42 94  1  0  0  0  0
 43 45  1  0  0  0  0
 43 95  1  0  0  0  0
 44 46  1  0  0  0  0
 44 96  1  0  0  0  0
 45 98  1  0  0  0  0
 46 97  1  0  0  0  0
M  END
