DB13253
 OpenBabel07062211533D

 30 30  0  0  1  0  0  0  0  0999 V2000
   -2.3830    1.2291    0.2720 O   0  0  0  0  0  0  0  0  0  0  0  0
   -0.7235    1.4843    2.0269 O   0  0  0  0  0  0  0  0  0  0  0  0
    0.5711   -0.5484   -2.0033 O   0  0  0  0  0  0  0  0  0  0  0  0
    2.2946    3.5205   -0.7663 O   0  0  0  0  0  0  0  0  0  0  0  0
    0.8588    2.4530    0.6775 N   0  0  0  0  0  0  0  0  0  0  0  0
    1.5049    1.4379   -1.3360 N   0  0  0  0  0  0  0  0  0  0  0  0
    0.2895    0.0937    0.3181 C   0  0  0  0  0  0  0  0  0  0  0  0
   -0.9997   -0.7404    0.3246 C   0  0  0  0  0  0  0  0  0  0  0  0
    1.3967   -0.6751    1.0613 C   0  0  0  0  0  0  0  0  0  0  0  0
   -2.1462   -0.0179   -0.3753 C   0  0  1  0  0  0  0  0  0  0  0  0
    0.0593    1.3942    1.0814 C   0  0  0  0  0  0  0  0  0  0  0  0
    0.7657    0.2848   -1.1185 C   0  0  0  0  0  0  0  0  0  0  0  0
   -3.4210   -0.8493   -0.3229 C   0  0  0  0  0  0  0  0  0  0  0  0
    1.7415   -1.9355    0.3400 C   0  0  0  0  0  0  0  0  0  0  0  0
    1.6142    2.5321   -0.4862 C   0  0  0  0  0  0  0  0  0  0  0  0
    2.9571   -2.1997   -0.1521 C   0  0  0  0  0  0  0  0  0  0  0  0
   -1.2899   -0.9568    1.3622 H   0  0  0  0  0  0  0  0  0  0  0  0
   -0.8683   -1.7075   -0.1736 H   0  0  0  0  0  0  0  0  0  0  0  0
    1.0731   -0.9265    2.0798 H   0  0  0  0  0  0  0  0  0  0  0  0
    2.2894   -0.0458    1.1782 H   0  0  0  0  0  0  0  0  0  0  0  0
   -1.9028    0.1901   -1.4222 H   0  0  0  0  0  0  0  0  0  0  0  0
    0.8280    3.2904    1.2524 H   0  0  0  0  0  0  0  0  0  0  0  0
    1.9507    1.5267   -2.2449 H   0  0  0  0  0  0  0  0  0  0  0  0
   -3.7373   -1.0192    0.7123 H   0  0  0  0  0  0  0  0  0  0  0  0
   -4.2429   -0.3208   -0.8181 H   0  0  0  0  0  0  0  0  0  0  0  0
   -3.2863   -1.8178   -0.8139 H   0  0  0  0  0  0  0  0  0  0  0  0
    0.9916   -2.7177    0.2663 H   0  0  0  0  0  0  0  0  0  0  0  0
   -3.1105    1.6709   -0.1982 H   0  0  0  0  0  0  0  0  0  0  0  0
    3.1591   -3.1486   -0.6369 H   0  0  0  0  0  0  0  0  0  0  0  0
    3.7661   -1.4808   -0.0846 H   0  0  0  0  0  0  0  0  0  0  0  0
  1 10  1  0  0  0  0
  1 28  1  0  0  0  0
  2 11  2  0  0  0  0
  3 12  2  0  0  0  0
  4 15  2  0  0  0  0
  5 11  1  0  0  0  0
  5 15  1  0  0  0  0
  5 22  1  0  0  0  0
  6 12  1  0  0  0  0
  6 15  1  0  0  0  0
  6 23  1  0  0  0  0
  7  8  1  0  0  0  0
  7  9  1  0  0  0  0
  7 11  1  0  0  0  0
  7 12  1  0  0  0  0
  8 10  1  0  0  0  0
  8 17  1  0  0  0  0
  8 18  1  0  0  0  0
  9 14  1  0  0  0  0
  9 19  1  0  0  0  0
  9 20  1  0  0  0  0
 10 13  1  0  0  0  0
 10 21  1  6  0  0  0
 13 24  1  0  0  0  0
 13 25  1  0  0  0  0
 13 26  1  0  0  0  0
 14 16  2  0  0  0  0
 14 27  1  0  0  0  0
 16 29  1  0  0  0  0
 16 30  1  0  0  0  0
M  END
