DB13154
 OpenBabel07062211533D

 13 13  0  0  0  0  0  0  0  0999 V2000
   -3.2763   -0.5707    0.0006 Cl  0  0  0  0  0  0  0  0  0  0  0  0
    2.4852    0.5603    0.0008 O   0  0  0  0  0  0  0  0  0  0  0  0
    1.1497    0.2982   -0.0008 C   0  0  0  0  0  0  0  0  0  0  0  0
    0.2327    1.3492   -0.0006 C   0  0  0  0  0  0  0  0  0  0  0  0
    0.6982   -1.0216   -0.0006 C   0  0  0  0  0  0  0  0  0  0  0  0
   -1.1361    1.0804    0.0000 C   0  0  0  0  0  0  0  0  0  0  0  0
   -0.6707   -1.2903   -0.0002 C   0  0  0  0  0  0  0  0  0  0  0  0
   -1.5877   -0.2393    0.0001 C   0  0  0  0  0  0  0  0  0  0  0  0
    0.5785    2.3793   -0.0004 H   0  0  0  0  0  0  0  0  0  0  0  0
    1.4024   -1.8492   -0.0004 H   0  0  0  0  0  0  0  0  0  0  0  0
   -1.8391    1.9094    0.0003 H   0  0  0  0  0  0  0  0  0  0  0  0
   -1.0082   -2.3235    0.0000 H   0  0  0  0  0  0  0  0  0  0  0  0
    2.9716   -0.2820    0.0010 H   0  0  0  0  0  0  0  0  0  0  0  0
  1  8  1  0  0  0  0
  2  3  1  0  0  0  0
  2 13  1  0  0  0  0
  3  4  2  0  0  0  0
  3  5  1  0  0  0  0
  4  6  1  0  0  0  0
  4  9  1  0  0  0  0
  5  7  2  0  0  0  0
  5 10  1  0  0  0  0
  6  8  2  0  0  0  0
  6 11  1  0  0  0  0
  7  8  1  0  0  0  0
  7 12  1  0  0  0  0
M  END
