DB13624
 OpenBabel07062211533D

 30 30  0  0  1  0  0  0  0  0999 V2000
   -1.7475    1.6138   -0.3966 O   0  0  0  0  0  0  0  0  0  0  0  0
    2.9834    0.4138   -0.7587 N   0  0  0  0  0  0  0  0  0  0  0  0
    1.7870   -0.2004   -0.1752 C   0  0  2  0  0  0  0  0  0  0  0  0
    0.5713    0.0881   -1.0748 C   0  0  0  0  0  0  0  0  0  0  0  0
   -0.7097   -0.5391   -0.5793 C   0  0  0  0  0  0  0  0  0  0  0  0
    1.6097    0.3435    1.2424 C   0  0  0  0  0  0  0  0  0  0  0  0
   -1.8001    0.2584   -0.2673 C   0  0  0  0  0  0  0  0  0  0  0  0
   -0.7670   -1.9183   -0.4461 C   0  0  0  0  0  0  0  0  0  0  0  0
    4.1613    0.0871    0.0275 C   0  0  0  0  0  0  0  0  0  0  0  0
   -2.9760   -0.3374    0.1890 C   0  0  0  0  0  0  0  0  0  0  0  0
   -1.9428   -2.5139    0.0104 C   0  0  0  0  0  0  0  0  0  0  0  0
   -3.0472   -1.7235    0.3280 C   0  0  0  0  0  0  0  0  0  0  0  0
   -2.9225    2.3438   -0.0497 C   0  0  0  0  0  0  0  0  0  0  0  0
    1.9373   -1.2857   -0.1204 H   0  0  0  0  0  0  0  0  0  0  0  0
    0.7607   -0.2983   -2.0861 H   0  0  0  0  0  0  0  0  0  0  0  0
    0.4598    1.1730   -1.1946 H   0  0  0  0  0  0  0  0  0  0  0  0
    0.6707   -0.0047    1.6858 H   0  0  0  0  0  0  0  0  0  0  0  0
    1.5866    1.4394    1.2566 H   0  0  0  0  0  0  0  0  0  0  0  0
    2.3954    0.0042    1.9250 H   0  0  0  0  0  0  0  0  0  0  0  0
    2.8747    1.4259   -0.8121 H   0  0  0  0  0  0  0  0  0  0  0  0
    0.0789   -2.5496   -0.7016 H   0  0  0  0  0  0  0  0  0  0  0  0
    5.0511    0.3535   -0.5530 H   0  0  0  0  0  0  0  0  0  0  0  0
    4.2348   -0.9843    0.2428 H   0  0  0  0  0  0  0  0  0  0  0  0
    4.2204    0.6561    0.9601 H   0  0  0  0  0  0  0  0  0  0  0  0
   -3.8730    0.2112    0.4546 H   0  0  0  0  0  0  0  0  0  0  0  0
   -1.9995   -3.5934    0.1157 H   0  0  0  0  0  0  0  0  0  0  0  0
   -3.9625   -2.1886    0.6827 H   0  0  0  0  0  0  0  0  0  0  0  0
   -3.1694    2.2311    1.0114 H   0  0  0  0  0  0  0  0  0  0  0  0
   -3.7636    2.0903   -0.7039 H   0  0  0  0  0  0  0  0  0  0  0  0
   -2.7023    3.4040   -0.2129 H   0  0  0  0  0  0  0  0  0  0  0  0
  1  7  1  0  0  0  0
  1 13  1  0  0  0  0
  2  3  1  0  0  0  0
  2  9  1  0  0  0  0
  2 20  1  0  0  0  0
  3  4  1  0  0  0  0
  3  6  1  0  0  0  0
  3 14  1  1  0  0  0
  4  5  1  0  0  0  0
  4 15  1  0  0  0  0
  4 16  1  0  0  0  0
  5  7  2  0  0  0  0
  5  8  1  0  0  0  0
  6 17  1  0  0  0  0
  6 18  1  0  0  0  0
  6 19  1  0  0  0  0
  7 10  1  0  0  0  0
  8 11  2  0  0  0  0
  8 21  1  0  0  0  0
  9 22  1  0  0  0  0
  9 23  1  0  0  0  0
  9 24  1  0  0  0  0
 10 12  2  0  0  0  0
 10 25  1  0  0  0  0
 11 12  1  0  0  0  0
 11 26  1  0  0  0  0
 12 27  1  0  0  0  0
 13 28  1  0  0  0  0
 13 29  1  0  0  0  0
 13 30  1  0  0  0  0
M  END
