DB13155
 OpenBabel07062211533D

 40 42  0  0  1  0  0  0  0  0999 V2000
    1.1864    0.5729   -0.3521 O   0  0  0  0  0  0  0  0  0  0  0  0
    0.0922   -1.2815   -1.2509 O   0  0  0  0  0  0  0  0  0  0  0  0
    4.8119   -1.3538   -0.4552 O   0  0  0  0  0  0  0  0  0  0  0  0
    4.4842    1.0065    1.1810 O   0  0  0  0  0  0  0  0  0  0  0  0
    2.3055   -2.8997   -0.5499 O   0  0  0  0  0  0  0  0  0  0  0  0
    0.7577    2.9893    0.8862 O   0  0  0  0  0  0  0  0  0  0  0  0
   -5.0400    0.6504   -0.4603 O   0  0  0  0  0  0  0  0  0  0  0  0
   -1.1626    0.2221   -3.2197 O   0  0  0  0  0  0  0  0  0  0  0  0
   -6.8925    0.8492    0.8714 O   0  0  0  0  0  0  0  0  0  0  0  0
    3.5688   -0.9582    0.1266 C   0  0  1  0  0  0  0  0  0  0  0  0
    3.5463    0.5686    0.2011 C   0  0  1  0  0  0  0  0  0  0  0  0
    2.4160   -1.4876   -0.7264 C   0  0  2  0  0  0  0  0  0  0  0  0
    2.1509    1.0736    0.5754 C   0  0  1  0  0  0  0  0  0  0  0  0
    1.0870   -0.8491   -0.3231 C   0  0  1  0  0  0  0  0  0  0  0  0
    2.0737    2.5967    0.5416 C   0  0  0  0  0  0  0  0  0  0  0  0
   -1.1752   -0.8052   -1.0559 C   0  0  0  0  0  0  0  0  0  0  0  0
   -1.8284   -1.0839    0.1454 C   0  0  0  0  0  0  0  0  0  0  0  0
   -1.8010   -0.0506   -2.0476 C   0  0  0  0  0  0  0  0  0  0  0  0
   -3.1220   -0.6037    0.3598 C   0  0  0  0  0  0  0  0  0  0  0  0
   -3.7348    0.1483   -0.6390 C   0  0  0  0  0  0  0  0  0  0  0  0
   -3.0916    0.4320   -1.8421 C   0  0  0  0  0  0  0  0  0  0  0  0
   -3.8510   -0.8616    1.5898 C   0  0  0  0  0  0  0  0  0  0  0  0
   -5.0872   -0.3828    1.7511 C   0  0  0  0  0  0  0  0  0  0  0  0
   -5.7573    0.4157    0.7080 C   0  0  0  0  0  0  0  0  0  0  0  0
    3.5417   -1.4013    1.1298 H   0  0  0  0  0  0  0  0  0  0  0  0
    3.8614    0.9852   -0.7635 H   0  0  0  0  0  0  0  0  0  0  0  0
    2.6206   -1.3160   -1.7900 H   0  0  0  0  0  0  0  0  0  0  0  0
    1.8688    0.7424    1.5841 H   0  0  0  0  0  0  0  0  0  0  0  0
    0.8131   -1.1826    0.6862 H   0  0  0  0  0  0  0  0  0  0  0  0
    2.7671    3.0534    1.2536 H   0  0  0  0  0  0  0  0  0  0  0  0
    2.2873    2.9868   -0.4590 H   0  0  0  0  0  0  0  0  0  0  0  0
    5.5223   -0.9914    0.1013 H   0  0  0  0  0  0  0  0  0  0  0  0
    4.2088    0.6476    2.0418 H   0  0  0  0  0  0  0  0  0  0  0  0
    2.1253   -3.0732    0.3898 H   0  0  0  0  0  0  0  0  0  0  0  0
    0.1501    2.5712    0.2521 H   0  0  0  0  0  0  0  0  0  0  0  0
   -1.3456   -1.6893    0.9084 H   0  0  0  0  0  0  0  0  0  0  0  0
   -3.5944    1.0215   -2.6033 H   0  0  0  0  0  0  0  0  0  0  0  0
   -3.3771   -1.4463    2.3704 H   0  0  0  0  0  0  0  0  0  0  0  0
   -1.7489    0.7556   -3.7832 H   0  0  0  0  0  0  0  0  0  0  0  0
   -5.6376   -0.5713    2.6664 H   0  0  0  0  0  0  0  0  0  0  0  0
  1 13  1  0  0  0  0
  1 14  1  0  0  0  0
  2 14  1  0  0  0  0
  2 16  1  0  0  0  0
  3 10  1  0  0  0  0
  3 32  1  0  0  0  0
  4 11  1  0  0  0  0
  4 33  1  0  0  0  0
  5 12  1  0  0  0  0
  5 34  1  0  0  0  0
  6 15  1  0  0  0  0
  6 35  1  0  0  0  0
  7 20  1  0  0  0  0
  7 24  1  0  0  0  0
  8 18  1  0  0  0  0
  8 39  1  0  0  0  0
  9 24  2  0  0  0  0
 10 11  1  1  0  0  0
 10 25  1  0  0  0  0
 11 13  1  1  0  0  0
 11 26  1  0  0  0  0
 12 10  1  1  0  0  0
 12 27  1  0  0  0  0
 13 15  1  0  0  0  0
 13 28  1  1  0  0  0
 14 12  1  6  0  0  0
 14 29  1  0  0  0  0
 15 30  1  0  0  0  0
 15 31  1  0  0  0  0
 16 17  2  0  0  0  0
 16 18  1  0  0  0  0
 17 19  1  0  0  0  0
 17 36  1  0  0  0  0
 18 21  2  0  0  0  0
 19 20  2  0  0  0  0
 19 22  1  0  0  0  0
 20 21  1  0  0  0  0
 21 37  1  0  0  0  0
 22 23  2  0  0  0  0
 22 38  1  0  0  0  0
 23 24  1  0  0  0  0
 23 40  1  0  0  0  0
M  END
