DB13274
 OpenBabel07062211533D

 73 75  0  0  1  0  0  0  0  0999 V2000
   -1.2139    0.6304   -0.3912 O   0  0  0  0  0  0  0  0  0  0  0  0
    1.6347    0.4522   -0.4241 O   0  0  0  0  0  0  0  0  0  0  0  0
   -3.1141   -0.1609   -1.5187 O   0  0  0  0  0  0  0  0  0  0  0  0
    0.3692    3.2019   -2.4359 O   0  0  0  0  0  0  0  0  0  0  0  0
    3.6857   -0.4020   -1.2219 O   0  0  0  0  0  0  0  0  0  0  0  0
   -1.9894   -1.8135    0.6323 O   0  0  0  0  0  0  0  0  0  0  0  0
   -6.2902   -1.5925   -0.3364 O   0  0  0  0  0  0  0  0  0  0  0  0
   -1.0891    4.3018   -0.0347 N   0  0  0  0  0  0  0  0  0  0  0  0
    1.9547    4.1145   -0.0674 N   0  0  0  0  0  0  0  0  0  0  0  0
   -5.0735   -0.0632    1.5909 N   0  0  0  0  0  0  0  0  0  0  0  0
    0.2542   -1.8148   -1.4912 N   0  0  0  0  0  0  0  0  0  0  0  0
    6.1359   -1.4292    1.3298 N   0  0  0  0  0  0  0  0  0  0  0  0
   -0.9913    1.9680   -0.8436 C   0  0  2  0  0  0  0  0  0  0  0  0
    1.5692    1.8075   -0.8735 C   0  0  1  0  0  0  0  0  0  0  0  0
    0.2856    1.9844   -1.7017 C   0  0  2  0  0  0  0  0  0  0  0  0
   -0.9319    2.9059    0.3771 C   0  0  1  0  0  0  0  0  0  0  0  0
    1.6554    2.7437    0.3472 C   0  0  2  0  0  0  0  0  0  0  0  0
    0.3633    2.6895    1.1825 C   0  0  0  0  0  0  0  0  0  0  0  0
   -2.6067    0.3471   -0.2843 C   0  0  1  0  0  0  0  0  0  0  0  0
   -4.2814   -1.1258    0.9515 C   0  0  2  0  0  0  0  0  0  0  0  0
   -2.8142   -0.6671    0.8497 C   0  0  1  0  0  0  0  0  0  0  0  0
   -4.8669   -1.4813   -0.4440 C   0  0  2  0  0  0  0  0  0  0  0  0
    2.2628   -0.3777   -1.3872 C   0  0  1  0  0  0  0  0  0  0  0  0
    1.7054   -1.8071   -1.3213 C   0  0  1  0  0  0  0  0  0  0  0  0
   -4.5218   -0.3919   -1.4693 C   0  0  0  0  0  0  0  0  0  0  0  0
    2.1059   -2.4846   -0.0082 C   0  0  0  0  0  0  0  0  0  0  0  0
    4.1062   -0.9581    0.0293 C   0  0  1  0  0  0  0  0  0  0  0  0
    3.6193   -2.4013    0.1743 C   0  0  0  0  0  0  0  0  0  0  0  0
   -4.3633   -2.8471   -0.9392 C   0  0  0  0  0  0  0  0  0  0  0  0
    5.6268   -0.8884    0.0772 C   0  0  0  0  0  0  0  0  0  0  0  0
   -4.8944   -0.0918    3.0318 C   0  0  0  0  0  0  0  0  0  0  0  0
    7.5910   -1.3714    1.3695 C   0  0  0  0  0  0  0  0  0  0  0  0
   -1.8208    2.2742   -1.4983 H   0  0  0  0  0  0  0  0  0  0  0  0
    2.4475    2.0202   -1.5009 H   0  0  0  0  0  0  0  0  0  0  0  0
    0.1991    1.1770   -2.4376 H   0  0  0  0  0  0  0  0  0  0  0  0
   -1.7636    2.6784    1.0545 H   0  0  0  0  0  0  0  0  0  0  0  0
    2.4764    2.4044    0.9919 H   0  0  0  0  0  0  0  0  0  0  0  0
    0.4178    3.4121    2.0081 H   0  0  0  0  0  0  0  0  0  0  0  0
    0.3069    1.7033    1.6637 H   0  0  0  0  0  0  0  0  0  0  0  0
   -3.1619    1.2605   -0.0318 H   0  0  0  0  0  0  0  0  0  0  0  0
   -4.3547   -2.0341    1.5659 H   0  0  0  0  0  0  0  0  0  0  0  0
   -2.4429   -0.2289    1.7816 H   0  0  0  0  0  0  0  0  0  0  0  0
    2.0812   -0.0049   -2.4034 H   0  0  0  0  0  0  0  0  0  0  0  0
    2.1521   -2.3857   -2.1408 H   0  0  0  0  0  0  0  0  0  0  0  0
   -4.8492   -0.6918   -2.4715 H   0  0  0  0  0  0  0  0  0  0  0  0
   -5.0465    0.5475   -1.2533 H   0  0  0  0  0  0  0  0  0  0  0  0
   -1.0904    4.9039    0.7875 H   0  0  0  0  0  0  0  0  0  0  0  0
   -1.9943    4.4269   -0.4858 H   0  0  0  0  0  0  0  0  0  0  0  0
    2.0547    4.7079    0.7551 H   0  0  0  0  0  0  0  0  0  0  0  0
    2.8509    4.1395   -0.5516 H   0  0  0  0  0  0  0  0  0  0  0  0
    1.6082   -2.0009    0.8422 H   0  0  0  0  0  0  0  0  0  0  0  0
    1.7926   -3.5355   -0.0067 H   0  0  0  0  0  0  0  0  0  0  0  0
    3.6957   -0.3420    0.8403 H   0  0  0  0  0  0  0  0  0  0  0  0
    1.1534    3.1480   -3.0082 H   0  0  0  0  0  0  0  0  0  0  0  0
    4.0931   -3.0303   -0.5905 H   0  0  0  0  0  0  0  0  0  0  0  0
    3.8838   -2.8176    1.1523 H   0  0  0  0  0  0  0  0  0  0  0  0
   -4.5659   -3.6282   -0.1976 H   0  0  0  0  0  0  0  0  0  0  0  0
   -4.8965   -3.1471   -1.8494 H   0  0  0  0  0  0  0  0  0  0  0  0
   -3.2951   -2.8526   -1.1685 H   0  0  0  0  0  0  0  0  0  0  0  0
   -6.0613   -0.2138    1.3854 H   0  0  0  0  0  0  0  0  0  0  0  0
    6.0429   -1.4381   -0.7774 H   0  0  0  0  0  0  0  0  0  0  0  0
    5.9396    0.1563   -0.0485 H   0  0  0  0  0  0  0  0  0  0  0  0
   -2.1074   -2.4088    1.3921 H   0  0  0  0  0  0  0  0  0  0  0  0
   -6.6483   -1.7510   -1.2267 H   0  0  0  0  0  0  0  0  0  0  0  0
    0.0114   -1.4135   -2.3958 H   0  0  0  0  0  0  0  0  0  0  0  0
   -0.0867   -2.7752   -1.4992 H   0  0  0  0  0  0  0  0  0  0  0  0
   -5.5294    0.6777    3.4836 H   0  0  0  0  0  0  0  0  0  0  0  0
   -5.1952   -1.0532    3.4620 H   0  0  0  0  0  0  0  0  0  0  0  0
   -3.8689    0.1316    3.3377 H   0  0  0  0  0  0  0  0  0  0  0  0
    5.7544   -0.8990    2.1127 H   0  0  0  0  0  0  0  0  0  0  0  0
    7.9461   -1.7903    2.3162 H   0  0  0  0  0  0  0  0  0  0  0  0
    7.9542   -0.3408    1.3000 H   0  0  0  0  0  0  0  0  0  0  0  0
    8.0336   -1.9632    0.5617 H   0  0  0  0  0  0  0  0  0  0  0  0
  1 13  1  0  0  0  0
  1 19  1  0  0  0  0
  2 14  1  0  0  0  0
  2 23  1  0  0  0  0
  3 19  1  0  0  0  0
  3 25  1  0  0  0  0
  4 15  1  0  0  0  0
  4 54  1  0  0  0  0
  5 23  1  0  0  0  0
  5 27  1  0  0  0  0
  6 21  1  0  0  0  0
  6 63  1  0  0  0  0
  7 22  1  0  0  0  0
  7 64  1  0  0  0  0
  8 16  1  0  0  0  0
  8 47  1  0  0  0  0
  8 48  1  0  0  0  0
  9 17  1  0  0  0  0
  9 49  1  0  0  0  0
  9 50  1  0  0  0  0
 10 20  1  0  0  0  0
 10 31  1  0  0  0  0
 10 60  1  0  0  0  0
 11 24  1  0  0  0  0
 11 65  1  0  0  0  0
 11 66  1  0  0  0  0
 12 30  1  0  0  0  0
 12 32  1  0  0  0  0
 12 70  1  0  0  0  0
 13 15  1  6  0  0  0
 13 33  1  0  0  0  0
 14 15  1  6  0  0  0
 14 34  1  0  0  0  0
 15 35  1  6  0  0  0
 16 13  1  6  0  0  0
 16 18  1  0  0  0  0
 16 36  1  0  0  0  0
 17 14  1  6  0  0  0
 17 18  1  0  0  0  0
 17 37  1  0  0  0  0
 18 38  1  0  0  0  0
 18 39  1  0  0  0  0
 19 21  1  1  0  0  0
 19 40  1  0  0  0  0
 20 21  1  6  0  0  0
 20 41  1  0  0  0  0
 21 42  1  1  0  0  0
 22 20  1  1  0  0  0
 22 25  1  0  0  0  0
 22 29  1  0  0  0  0
 23 24  1  1  0  0  0
 23 43  1  0  0  0  0
 24 26  1  0  0  0  0
 24 44  1  6  0  0  0
 25 45  1  0  0  0  0
 25 46  1  0  0  0  0
 26 28  1  0  0  0  0
 26 51  1  0  0  0  0
 26 52  1  0  0  0  0
 27 28  1  0  0  0  0
 27 30  1  0  0  0  0
 27 53  1  1  0  0  0
 28 55  1  0  0  0  0
 28 56  1  0  0  0  0
 29 57  1  0  0  0  0
 29 58  1  0  0  0  0
 29 59  1  0  0  0  0
 30 61  1  0  0  0  0
 30 62  1  0  0  0  0
 31 67  1  0  0  0  0
 31 68  1  0  0  0  0
 31 69  1  0  0  0  0
 32 71  1  0  0  0  0
 32 72  1  0  0  0  0
 32 73  1  0  0  0  0
M  END
