DB13981
 OpenBabel07062211533D

 57 60  0  0  1  0  0  0  0  0999 V2000
    3.0991    0.2391    1.1005 O   0  0  0  0  0  0  0  0  0  0  0  0
    4.9111   -0.1674   -1.5948 O   0  0  0  0  0  0  0  0  0  0  0  0
   -6.7530   -0.7741    1.2833 O   0  0  0  0  0  0  0  0  0  0  0  0
    5.1577    1.2535    0.8354 O   0  0  0  0  0  0  0  0  0  0  0  0
    1.5377   -0.3785   -0.6874 C   0  0  1  0  0  0  0  0  0  0  0  0
    0.6608    0.8664   -0.3915 C   0  0  2  0  0  0  0  0  0  0  0  0
   -0.8141    0.6421   -0.7483 C   0  0  1  0  0  0  0  0  0  0  0  0
    2.9298    0.1921   -0.3131 C   0  0  1  0  0  0  0  0  0  0  0  0
   -1.3467   -0.5329    0.1193 C   0  0  2  0  0  0  0  0  0  0  0  0
    1.0167   -1.5391    0.1774 C   0  0  0  0  0  0  0  0  0  0  0  0
    1.4268    2.0006   -1.0696 C   0  0  0  0  0  0  0  0  0  0  0  0
   -0.4833   -1.8032   -0.0539 C   0  0  0  0  0  0  0  0  0  0  0  0
    2.9122    1.6312   -0.8747 C   0  0  0  0  0  0  0  0  0  0  0  0
   -2.8563   -0.7362   -0.1779 C   0  0  2  0  0  0  0  0  0  0  0  0
    1.5203   -0.8071   -2.1819 C   0  0  0  0  0  0  0  0  0  0  0  0
   -1.6743    1.8617   -0.5558 C   0  0  0  0  0  0  0  0  0  0  0  0
    4.0801   -0.6293   -0.8143 C   0  0  0  0  0  0  0  0  0  0  0  0
   -3.6409    0.5465    0.1302 C   0  0  0  0  0  0  0  0  0  0  0  0
   -3.4268   -1.9427    0.5877 C   0  0  0  0  0  0  0  0  0  0  0  0
   -2.9554    1.8243   -0.1412 C   0  0  0  0  0  0  0  0  0  0  0  0
   -4.9307   -2.0552    0.4123 C   0  0  0  0  0  0  0  0  0  0  0  0
   -4.8940    0.5034    0.6207 C   0  0  0  0  0  0  0  0  0  0  0  0
    4.1694   -2.0454   -0.3134 C   0  0  0  0  0  0  0  0  0  0  0  0
   -3.7131    3.1194    0.0107 C   0  0  0  0  0  0  0  0  0  0  0  0
   -5.6090   -0.7794    0.8323 C   0  0  0  0  0  0  0  0  0  0  0  0
    4.2657    0.7990    1.5389 C   0  0  0  0  0  0  0  0  0  0  0  0
    4.3051    0.7810    3.0370 C   0  0  0  0  0  0  0  0  0  0  0  0
    0.6968    1.0773    0.6904 H   0  0  0  0  0  0  0  0  0  0  0  0
   -0.8959    0.3861   -1.8113 H   0  0  0  0  0  0  0  0  0  0  0  0
   -1.2556   -0.2447    1.1794 H   0  0  0  0  0  0  0  0  0  0  0  0
    1.1615   -1.3216    1.2427 H   0  0  0  0  0  0  0  0  0  0  0  0
    1.5560   -2.4680   -0.0274 H   0  0  0  0  0  0  0  0  0  0  0  0
    1.2010    2.9724   -0.6184 H   0  0  0  0  0  0  0  0  0  0  0  0
    1.1847    2.0680   -2.1362 H   0  0  0  0  0  0  0  0  0  0  0  0
   -0.6443   -2.2306   -1.0501 H   0  0  0  0  0  0  0  0  0  0  0  0
   -0.7944   -2.5689    0.6659 H   0  0  0  0  0  0  0  0  0  0  0  0
    3.4157    1.7203   -1.8439 H   0  0  0  0  0  0  0  0  0  0  0  0
    3.3536    2.3823   -0.2136 H   0  0  0  0  0  0  0  0  0  0  0  0
   -2.9705   -0.9371   -1.2536 H   0  0  0  0  0  0  0  0  0  0  0  0
    0.5141   -1.0260   -2.5478 H   0  0  0  0  0  0  0  0  0  0  0  0
    1.9358   -0.0401   -2.8431 H   0  0  0  0  0  0  0  0  0  0  0  0
    2.1048   -1.7184   -2.3427 H   0  0  0  0  0  0  0  0  0  0  0  0
   -1.2273    2.8224   -0.7985 H   0  0  0  0  0  0  0  0  0  0  0  0
   -3.1883   -1.8526    1.6559 H   0  0  0  0  0  0  0  0  0  0  0  0
   -2.9716   -2.8733    0.2313 H   0  0  0  0  0  0  0  0  0  0  0  0
   -5.3080   -2.8745    1.0338 H   0  0  0  0  0  0  0  0  0  0  0  0
   -5.1935   -2.2609   -0.6309 H   0  0  0  0  0  0  0  0  0  0  0  0
   -5.4665    1.3925    0.8613 H   0  0  0  0  0  0  0  0  0  0  0  0
    3.8283   -2.1343    0.7200 H   0  0  0  0  0  0  0  0  0  0  0  0
    3.6049   -2.7166   -0.9619 H   0  0  0  0  0  0  0  0  0  0  0  0
    5.2198   -2.3536   -0.3314 H   0  0  0  0  0  0  0  0  0  0  0  0
   -4.0208    3.2694    1.0512 H   0  0  0  0  0  0  0  0  0  0  0  0
   -4.6013    3.1286   -0.6304 H   0  0  0  0  0  0  0  0  0  0  0  0
   -3.1077    3.9885   -0.2711 H   0  0  0  0  0  0  0  0  0  0  0  0
    4.2608   -0.2504    3.3956 H   0  0  0  0  0  0  0  0  0  0  0  0
    3.4715    1.3642    3.4360 H   0  0  0  0  0  0  0  0  0  0  0  0
    5.2413    1.2300    3.3807 H   0  0  0  0  0  0  0  0  0  0  0  0
  1  8  1  0  0  0  0
  1 26  1  0  0  0  0
  2 17  2  0  0  0  0
  3 25  2  0  0  0  0
  4 26  2  0  0  0  0
  5  6  1  1  0  0  0
  5 10  1  0  0  0  0
  5 15  1  0  0  0  0
  6  7  1  6  0  0  0
  6 11  1  0  0  0  0
  6 28  1  0  0  0  0
  7  9  1  1  0  0  0
  7 16  1  0  0  0  0
  7 29  1  0  0  0  0
  8  5  1  6  0  0  0
  8 13  1  0  0  0  0
  8 17  1  0  0  0  0
  9 12  1  0  0  0  0
  9 14  1  6  0  0  0
  9 30  1  0  0  0  0
 10 12  1  0  0  0  0
 10 31  1  0  0  0  0
 10 32  1  0  0  0  0
 11 13  1  0  0  0  0
 11 33  1  0  0  0  0
 11 34  1  0  0  0  0
 12 35  1  0  0  0  0
 12 36  1  0  0  0  0
 13 37  1  0  0  0  0
 13 38  1  0  0  0  0
 14 18  1  0  0  0  0
 14 19  1  0  0  0  0
 14 39  1  6  0  0  0
 15 40  1  0  0  0  0
 15 41  1  0  0  0  0
 15 42  1  0  0  0  0
 16 20  2  0  0  0  0
 16 43  1  0  0  0  0
 17 23  1  0  0  0  0
 18 20  1  0  0  0  0
 18 22  2  0  0  0  0
 19 21  1  0  0  0  0
 19 44  1  0  0  0  0
 19 45  1  0  0  0  0
 20 24  1  0  0  0  0
 21 25  1  0  0  0  0
 21 46  1  0  0  0  0
 21 47  1  0  0  0  0
 22 25  1  0  0  0  0
 22 48  1  0  0  0  0
 23 49  1  0  0  0  0
 23 50  1  0  0  0  0
 23 51  1  0  0  0  0
 24 52  1  0  0  0  0
 24 53  1  0  0  0  0
 24 54  1  0  0  0  0
 26 27  1  0  0  0  0
 27 55  1  0  0  0  0
 27 56  1  0  0  0  0
 27 57  1  0  0  0  0
M  END
