DB13273
 OpenBabel07062211533D

 50 51  0  0  1  0  0  0  0  0999 V2000
    4.9067    0.7395   -1.0254 S   0  0  0  0  0  0  0  0  0  0  0  0
   -0.5704   -2.2044   -1.3711 O   0  0  0  0  0  0  0  0  0  0  0  0
    1.1030   -3.6347    0.0701 O   0  0  0  0  0  0  0  0  0  0  0  0
    6.2279    0.1491   -1.1840 O   0  0  0  0  0  0  0  0  0  0  0  0
    4.3643    1.5904   -2.0757 O   0  0  0  0  0  0  0  0  0  0  0  0
   -3.9528    0.8147   -0.2063 N   0  0  0  0  0  0  0  0  0  0  0  0
   -0.3617    0.0778   -1.0085 N   0  0  0  0  0  0  0  0  0  0  0  0
   -2.5678    0.3652   -0.0086 C   0  0  2  0  0  0  0  0  0  0  0  0
   -2.0507    1.3312    1.0594 C   0  0  0  0  0  0  0  0  0  0  0  0
   -3.2909    1.8006    1.8119 C   0  0  0  0  0  0  0  0  0  0  0  0
   -4.4559    1.0915    1.1414 C   0  0  0  0  0  0  0  0  0  0  0  0
   -1.7262    0.4219   -1.2772 C   0  0  0  0  0  0  0  0  0  0  0  0
   -4.7846   -0.1637   -0.8966 C   0  0  0  0  0  0  0  0  0  0  0  0
   -6.2208    0.3054   -1.0031 C   0  0  0  0  0  0  0  0  0  0  0  0
    0.1155   -1.2287   -1.0779 C   0  0  0  0  0  0  0  0  0  0  0  0
    1.5500   -1.4236   -0.7446 C   0  0  0  0  0  0  0  0  0  0  0  0
    2.4247   -0.3882   -1.0085 C   0  0  0  0  0  0  0  0  0  0  0  0
    3.7759   -0.5518   -0.7036 C   0  0  0  0  0  0  0  0  0  0  0  0
    1.9697   -2.6151   -0.1886 C   0  0  0  0  0  0  0  0  0  0  0  0
    4.2243   -1.7473   -0.1416 C   0  0  0  0  0  0  0  0  0  0  0  0
    3.3212   -2.7788    0.1159 C   0  0  0  0  0  0  0  0  0  0  0  0
    4.9139    1.7025    0.4698 C   0  0  0  0  0  0  0  0  0  0  0  0
    5.8551    2.8817    0.3653 C   0  0  0  0  0  0  0  0  0  0  0  0
    0.4855   -3.6491    1.3552 C   0  0  0  0  0  0  0  0  0  0  0  0
   -2.5492   -0.6522    0.4089 H   0  0  0  0  0  0  0  0  0  0  0  0
   -1.3442    0.8356    1.7343 H   0  0  0  0  0  0  0  0  0  0  0  0
   -1.5419    2.2002    0.6245 H   0  0  0  0  0  0  0  0  0  0  0  0
   -3.3912    2.8883    1.7175 H   0  0  0  0  0  0  0  0  0  0  0  0
   -3.2337    1.5604    2.8784 H   0  0  0  0  0  0  0  0  0  0  0  0
   -5.3413    1.7351    1.1420 H   0  0  0  0  0  0  0  0  0  0  0  0
   -4.6889    0.1685    1.6881 H   0  0  0  0  0  0  0  0  0  0  0  0
   -1.7272    1.4299   -1.7077 H   0  0  0  0  0  0  0  0  0  0  0  0
   -2.1176   -0.2626   -2.0371 H   0  0  0  0  0  0  0  0  0  0  0  0
   -4.7593   -1.1406   -0.3972 H   0  0  0  0  0  0  0  0  0  0  0  0
   -4.4066   -0.3128   -1.9142 H   0  0  0  0  0  0  0  0  0  0  0  0
    0.2414    0.8284   -0.6894 H   0  0  0  0  0  0  0  0  0  0  0  0
   -6.7828   -0.3696   -1.6579 H   0  0  0  0  0  0  0  0  0  0  0  0
   -6.2846    1.3100   -1.4352 H   0  0  0  0  0  0  0  0  0  0  0  0
   -6.7316    0.3084   -0.0350 H   0  0  0  0  0  0  0  0  0  0  0  0
    2.0979    0.5368   -1.4721 H   0  0  0  0  0  0  0  0  0  0  0  0
    5.2707   -1.8942    0.1104 H   0  0  0  0  0  0  0  0  0  0  0  0
    3.8909    2.0471    0.6492 H   0  0  0  0  0  0  0  0  0  0  0  0
    5.2189    1.0438    1.2884 H   0  0  0  0  0  0  0  0  0  0  0  0
    3.6775   -3.7068    0.5549 H   0  0  0  0  0  0  0  0  0  0  0  0
    5.8467    3.4584    1.2952 H   0  0  0  0  0  0  0  0  0  0  0  0
    6.8824    2.5531    0.1782 H   0  0  0  0  0  0  0  0  0  0  0  0
    5.5646    3.5499   -0.4517 H   0  0  0  0  0  0  0  0  0  0  0  0
   -0.0683   -2.7220    1.5340 H   0  0  0  0  0  0  0  0  0  0  0  0
   -0.2164   -4.4869    1.3883 H   0  0  0  0  0  0  0  0  0  0  0  0
    1.2379   -3.7922    2.1373 H   0  0  0  0  0  0  0  0  0  0  0  0
  1  4  2  0  0  0  0
  1  5  2  0  0  0  0
  1 18  1  0  0  0  0
  1 22  1  0  0  0  0
  2 15  2  0  0  0  0
  3 19  1  0  0  0  0
  3 24  1  0  0  0  0
  6  8  1  0  0  0  0
  6 11  1  0  0  0  0
  6 13  1  0  0  0  0
  7 12  1  0  0  0  0
  7 15  1  0  0  0  0
  7 36  1  0  0  0  0
  8  9  1  0  0  0  0
  8 12  1  0  0  0  0
  8 25  1  1  0  0  0
  9 10  1  0  0  0  0
  9 26  1  0  0  0  0
  9 27  1  0  0  0  0
 10 11  1  0  0  0  0
 10 28  1  0  0  0  0
 10 29  1  0  0  0  0
 11 30  1  0  0  0  0
 11 31  1  0  0  0  0
 12 32  1  0  0  0  0
 12 33  1  0  0  0  0
 13 14  1  0  0  0  0
 13 34  1  0  0  0  0
 13 35  1  0  0  0  0
 14 37  1  0  0  0  0
 14 38  1  0  0  0  0
 14 39  1  0  0  0  0
 15 16  1  0  0  0  0
 16 17  2  0  0  0  0
 16 19  1  0  0  0  0
 17 18  1  0  0  0  0
 17 40  1  0  0  0  0
 18 20  2  0  0  0  0
 19 21  2  0  0  0  0
 20 21  1  0  0  0  0
 20 41  1  0  0  0  0
 21 44  1  0  0  0  0
 22 23  1  0  0  0  0
 22 42  1  0  0  0  0
 22 43  1  0  0  0  0
 23 45  1  0  0  0  0
 23 46  1  0  0  0  0
 23 47  1  0  0  0  0
 24 48  1  0  0  0  0
 24 49  1  0  0  0  0
 24 50  1  0  0  0  0
M  END
