DB13267
 OpenBabel07062211533D

 26 25  0  0  0  0  0  0  0  0999 V2000
   -1.4545    0.9421   -0.6772 S   0  0  0  0  0  0  0  0  0  0  0  0
    1.5428    0.7880   -0.6773 S   0  0  0  0  0  0  0  0  0  0  0  0
   -0.0891   -1.7303   -0.6775 S   0  0  0  0  0  0  0  0  0  0  0  0
   -5.0565    0.3239    0.6511 O   0  0  0  0  0  0  0  0  0  0  0  0
    2.8092    4.2163    0.6512 O   0  0  0  0  0  0  0  0  0  0  0  0
    2.2480   -4.5401    0.6513 O   0  0  0  0  0  0  0  0  0  0  0  0
   -4.3245    1.1624   -1.3303 O   0  0  0  0  0  0  0  0  0  0  0  0
    3.1690    3.1631   -1.3304 O   0  0  0  0  0  0  0  0  0  0  0  0
    1.1560   -4.3258   -1.3303 O   0  0  0  0  0  0  0  0  0  0  0  0
   -0.0004    0.0000   -0.0773 C   0  0  0  0  0  0  0  0  0  0  0  0
   -2.7769   -0.0442    0.0692 C   0  0  0  0  0  0  0  0  0  0  0  0
    1.3503    2.4264    0.0692 C   0  0  0  0  0  0  0  0  0  0  0  0
    1.4265   -2.3821    0.0691 C   0  0  0  0  0  0  0  0  0  0  0  0
   -4.1077    0.5504   -0.2923 C   0  0  0  0  0  0  0  0  0  0  0  0
    2.5306    3.2814   -0.2923 C   0  0  0  0  0  0  0  0  0  0  0  0
    1.5773   -3.8317   -0.2922 C   0  0  0  0  0  0  0  0  0  0  0  0
   -0.0004   -0.0001    1.0168 H   0  0  0  0  0  0  0  0  0  0  0  0
   -2.6564   -0.0236    1.1563 H   0  0  0  0  0  0  0  0  0  0  0  0
   -2.7838   -1.0755   -0.2897 H   0  0  0  0  0  0  0  0  0  0  0  0
    1.3078    2.3117    1.1563 H   0  0  0  0  0  0  0  0  0  0  0  0
    0.4605    2.9481   -0.2894 H   0  0  0  0  0  0  0  0  0  0  0  0
    1.3483   -2.2879    1.1562 H   0  0  0  0  0  0  0  0  0  0  0  0
    2.3229   -1.8723   -0.2896 H   0  0  0  0  0  0  0  0  0  0  0  0
   -5.9222    0.7109    0.3999 H   0  0  0  0  0  0  0  0  0  0  0  0
    3.5774    4.7722    0.3998 H   0  0  0  0  0  0  0  0  0  0  0  0
    2.3458   -5.4833    0.4001 H   0  0  0  0  0  0  0  0  0  0  0  0
  1 10  1  0  0  0  0
  1 11  1  0  0  0  0
  2 10  1  0  0  0  0
  2 12  1  0  0  0  0
  3 10  1  0  0  0  0
  3 13  1  0  0  0  0
  4 14  1  0  0  0  0
  4 24  1  0  0  0  0
  5 15  1  0  0  0  0
  5 25  1  0  0  0  0
  6 16  1  0  0  0  0
  6 26  1  0  0  0  0
  7 14  2  0  0  0  0
  8 15  2  0  0  0  0
  9 16  2  0  0  0  0
 10 17  1  0  0  0  0
 11 14  1  0  0  0  0
 11 18  1  0  0  0  0
 11 19  1  0  0  0  0
 12 15  1  0  0  0  0
 12 20  1  0  0  0  0
 12 21  1  0  0  0  0
 13 16  1  0  0  0  0
 13 22  1  0  0  0  0
 13 23  1  0  0  0  0
M  END
