DB13781
 OpenBabel07062211533D

 49 50  0  0  1  0  0  0  0  0999 V2000
   -4.5131    0.0071    0.8247 O   0  0  0  0  0  0  0  0  0  0  0  0
    5.2089    1.0452   -0.1402 O   0  0  0  0  0  0  0  0  0  0  0  0
    2.5909    1.9638   -0.3250 O   0  0  0  0  0  0  0  0  0  0  0  0
   -1.2141   -2.6709   -1.7106 O   0  0  0  0  0  0  0  0  0  0  0  0
   -2.6969    3.5446   -0.4197 O   0  0  0  0  0  0  0  0  0  0  0  0
   -2.1778   -1.2535   -0.1477 N   0  0  0  0  0  0  0  0  0  0  0  0
   -0.1709   -2.4131    0.3165 N   0  0  0  0  0  0  0  0  0  0  0  0
    2.5628   -1.5135    0.2595 N   0  0  0  0  0  0  0  0  0  0  0  0
   -3.2866   -0.9138   -1.0424 C   0  0  0  0  0  0  0  0  0  0  0  0
   -2.1468   -0.4770    1.0998 C   0  0  0  0  0  0  0  0  0  0  0  0
   -4.6065   -0.8840   -0.2881 C   0  0  0  0  0  0  0  0  0  0  0  0
   -3.5248   -0.4433    1.7520 C   0  0  0  0  0  0  0  0  0  0  0  0
   -1.1907   -2.1501   -0.5904 C   0  0  0  0  0  0  0  0  0  0  0  0
    2.0822   -2.5612   -0.6323 C   0  0  0  0  0  0  0  0  0  0  0  0
    0.9213   -3.3085    0.0073 C   0  0  0  0  0  0  0  0  0  0  0  0
    3.6681   -0.7825   -0.3446 C   0  0  0  0  0  0  0  0  0  0  0  0
    4.1549    0.3633    0.5457 C   0  0  2  0  0  0  0  0  0  0  0  0
    3.0608    1.3739    0.8832 C   0  0  0  0  0  0  0  0  0  0  0  0
    1.2793    2.3562   -0.3485 C   0  0  0  0  0  0  0  0  0  0  0  0
    0.6530    2.7671    0.8282 C   0  0  0  0  0  0  0  0  0  0  0  0
    0.5693    2.3447   -1.5491 C   0  0  0  0  0  0  0  0  0  0  0  0
   -0.6831    3.1667    0.8041 C   0  0  0  0  0  0  0  0  0  0  0  0
   -0.7668    2.7442   -1.5731 C   0  0  0  0  0  0  0  0  0  0  0  0
   -1.3931    3.1554   -0.3965 C   0  0  0  0  0  0  0  0  0  0  0  0
   -3.0613    0.0806   -1.4461 H   0  0  0  0  0  0  0  0  0  0  0  0
   -3.3463   -1.6126   -1.8820 H   0  0  0  0  0  0  0  0  0  0  0  0
   -1.4219   -0.8435    1.8243 H   0  0  0  0  0  0  0  0  0  0  0  0
   -1.8497    0.5343    0.8132 H   0  0  0  0  0  0  0  0  0  0  0  0
   -4.8888   -1.8822    0.0670 H   0  0  0  0  0  0  0  0  0  0  0  0
   -5.4057   -0.5226   -0.9426 H   0  0  0  0  0  0  0  0  0  0  0  0
   -3.5198    0.2489    2.6000 H   0  0  0  0  0  0  0  0  0  0  0  0
   -3.8083   -1.4327    2.1305 H   0  0  0  0  0  0  0  0  0  0  0  0
    2.8850   -3.2745   -0.8534 H   0  0  0  0  0  0  0  0  0  0  0  0
    1.7508   -2.1216   -1.5809 H   0  0  0  0  0  0  0  0  0  0  0  0
    1.2304   -3.7817    0.9461 H   0  0  0  0  0  0  0  0  0  0  0  0
    0.5687   -4.0983   -0.6648 H   0  0  0  0  0  0  0  0  0  0  0  0
    3.3718   -0.3814   -1.3228 H   0  0  0  0  0  0  0  0  0  0  0  0
    4.5122   -1.4568   -0.5400 H   0  0  0  0  0  0  0  0  0  0  0  0
    4.5762   -0.0391    1.4738 H   0  0  0  0  0  0  0  0  0  0  0  0
   -0.1392   -1.9734    1.2248 H   0  0  0  0  0  0  0  0  0  0  0  0
    2.8597   -1.9189    1.1465 H   0  0  0  0  0  0  0  0  0  0  0  0
    2.2680    0.8645    1.4444 H   0  0  0  0  0  0  0  0  0  0  0  0
    3.4844    2.1732    1.5029 H   0  0  0  0  0  0  0  0  0  0  0  0
    4.8307    1.4445   -0.9424 H   0  0  0  0  0  0  0  0  0  0  0  0
    1.1770    2.8202    1.7779 H   0  0  0  0  0  0  0  0  0  0  0  0
    1.0519    2.0238   -2.4683 H   0  0  0  0  0  0  0  0  0  0  0  0
   -1.1647    3.4911    1.7226 H   0  0  0  0  0  0  0  0  0  0  0  0
   -1.3093    2.7291   -2.5146 H   0  0  0  0  0  0  0  0  0  0  0  0
   -3.0323    3.4681   -1.3295 H   0  0  0  0  0  0  0  0  0  0  0  0
  1 11  1  0  0  0  0
  1 12  1  0  0  0  0
  2 17  1  0  0  0  0
  2 44  1  0  0  0  0
  3 18  1  0  0  0  0
  3 19  1  0  0  0  0
  4 13  2  0  0  0  0
  5 24  1  0  0  0  0
  5 49  1  0  0  0  0
  6  9  1  0  0  0  0
  6 10  1  0  0  0  0
  6 13  1  0  0  0  0
  7 13  1  0  0  0  0
  7 15  1  0  0  0  0
  7 40  1  0  0  0  0
  8 14  1  0  0  0  0
  8 16  1  0  0  0  0
  8 41  1  0  0  0  0
  9 11  1  0  0  0  0
  9 25  1  0  0  0  0
  9 26  1  0  0  0  0
 10 12  1  0  0  0  0
 10 27  1  0  0  0  0
 10 28  1  0  0  0  0
 11 29  1  0  0  0  0
 11 30  1  0  0  0  0
 12 31  1  0  0  0  0
 12 32  1  0  0  0  0
 14 15  1  0  0  0  0
 14 33  1  0  0  0  0
 14 34  1  0  0  0  0
 15 35  1  0  0  0  0
 15 36  1  0  0  0  0
 16 17  1  0  0  0  0
 16 37  1  0  0  0  0
 16 38  1  0  0  0  0
 17 18  1  0  0  0  0
 17 39  1  1  0  0  0
 18 42  1  0  0  0  0
 18 43  1  0  0  0  0
 19 20  2  0  0  0  0
 19 21  1  0  0  0  0
 20 22  1  0  0  0  0
 20 45  1  0  0  0  0
 21 23  2  0  0  0  0
 21 46  1  0  0  0  0
 22 24  2  0  0  0  0
 22 47  1  0  0  0  0
 23 24  1  0  0  0  0
 23 48  1  0  0  0  0
M  END
