DB13720
 OpenBabel07062211533D

 45 47  0  0  0  0  0  0  0  0999 V2000
    3.1022    0.0083    0.0716 N   0  3  0  0  0  0  0  0  0  0  0  0
    2.2521   -1.2596    0.2566 C   0  0  0  0  0  0  0  0  0  0  0  0
    2.2446    1.2670    0.2815 C   0  0  0  0  0  0  0  0  0  0  0  0
    1.0208   -1.2566   -0.6460 C   0  0  0  0  0  0  0  0  0  0  0  0
    1.0136    1.2748   -0.6212 C   0  0  0  0  0  0  0  0  0  0  0  0
    0.2248    0.0052   -0.4656 C   0  0  0  0  0  0  0  0  0  0  0  0
    3.7894    0.0238   -1.2929 C   0  0  0  0  0  0  0  0  0  0  0  0
    4.2047    0.0010    1.1379 C   0  0  0  0  0  0  0  0  0  0  0  0
   -1.0821   -0.0014   -0.1661 C   0  0  0  0  0  0  0  0  0  0  0  0
   -1.7600    1.2657   -0.0129 C   0  0  0  0  0  0  0  0  0  0  0  0
   -1.7465   -1.2755   -0.0112 C   0  0  0  0  0  0  0  0  0  0  0  0
   -1.8212    1.8876    1.2395 C   0  0  0  0  0  0  0  0  0  0  0  0
   -2.3418   -1.9008   -1.1129 C   0  0  0  0  0  0  0  0  0  0  0  0
   -2.3620    1.8832   -1.1153 C   0  0  0  0  0  0  0  0  0  0  0  0
   -1.8012   -1.8965    1.2419 C   0  0  0  0  0  0  0  0  0  0  0  0
   -2.4758    3.1103    1.3876 C   0  0  0  0  0  0  0  0  0  0  0  0
   -2.9833   -3.1302   -0.9634 C   0  0  0  0  0  0  0  0  0  0  0  0
   -3.0164    3.1061   -0.9671 C   0  0  0  0  0  0  0  0  0  0  0  0
   -2.4427   -3.1261    1.3913 C   0  0  0  0  0  0  0  0  0  0  0  0
   -3.0732    3.7196    0.2843 C   0  0  0  0  0  0  0  0  0  0  0  0
   -3.0338   -3.7428    0.2885 C   0  0  0  0  0  0  0  0  0  0  0  0
    1.9530   -1.2952    1.3117 H   0  0  0  0  0  0  0  0  0  0  0  0
    2.8955   -2.1209    0.0438 H   0  0  0  0  0  0  0  0  0  0  0  0
    2.8830    2.1362    0.0860 H   0  0  0  0  0  0  0  0  0  0  0  0
    1.9452    1.2801    1.3370 H   0  0  0  0  0  0  0  0  0  0  0  0
    0.4748   -2.1816   -0.4455 H   0  0  0  0  0  0  0  0  0  0  0  0
    1.3230   -1.3293   -1.6978 H   0  0  0  0  0  0  0  0  0  0  0  0
    1.3152    1.3700   -1.6713 H   0  0  0  0  0  0  0  0  0  0  0  0
    0.4622    2.1924   -0.4024 H   0  0  0  0  0  0  0  0  0  0  0  0
    4.4130   -0.8716   -1.3736 H   0  0  0  0  0  0  0  0  0  0  0  0
    3.0400    0.0293   -2.0856 H   0  0  0  0  0  0  0  0  0  0  0  0
    4.4075    0.9244   -1.3559 H   0  0  0  0  0  0  0  0  0  0  0  0
    4.8105    0.9036    1.0141 H   0  0  0  0  0  0  0  0  0  0  0  0
    3.7343   -0.0102    2.1255 H   0  0  0  0  0  0  0  0  0  0  0  0
    4.8158   -0.8956    0.9963 H   0  0  0  0  0  0  0  0  0  0  0  0
   -1.3598    1.4285    2.1110 H   0  0  0  0  0  0  0  0  0  0  0  0
   -2.3117   -1.4389   -2.0973 H   0  0  0  0  0  0  0  0  0  0  0  0
   -2.3272    1.4206   -2.0992 H   0  0  0  0  0  0  0  0  0  0  0  0
   -1.3449   -1.4315    2.1129 H   0  0  0  0  0  0  0  0  0  0  0  0
   -2.5196    3.5884    2.3618 H   0  0  0  0  0  0  0  0  0  0  0  0
   -3.4432   -3.6109   -1.8219 H   0  0  0  0  0  0  0  0  0  0  0  0
   -3.4814    3.5809   -1.8261 H   0  0  0  0  0  0  0  0  0  0  0  0
   -2.4816   -3.6035    2.3659 H   0  0  0  0  0  0  0  0  0  0  0  0
   -3.5827    4.6719    0.3995 H   0  0  0  0  0  0  0  0  0  0  0  0
   -3.5330   -4.7003    0.4048 H   0  0  0  0  0  0  0  0  0  0  0  0
  1  2  1  0  0  0  0
  1  3  1  0  0  0  0
  1  7  1  0  0  0  0
  1  8  1  0  0  0  0
  2  4  1  0  0  0  0
  2 22  1  0  0  0  0
  2 23  1  0  0  0  0
  3  5  1  0  0  0  0
  3 24  1  0  0  0  0
  3 25  1  0  0  0  0
  4  6  1  0  0  0  0
  4 26  1  0  0  0  0
  4 27  1  0  0  0  0
  5  6  1  0  0  0  0
  5 28  1  0  0  0  0
  5 29  1  0  0  0  0
  6  9  2  0  0  0  0
  7 30  1  0  0  0  0
  7 31  1  0  0  0  0
  7 32  1  0  0  0  0
  8 33  1  0  0  0  0
  8 34  1  0  0  0  0
  8 35  1  0  0  0  0
  9 10  1  0  0  0  0
  9 11  1  0  0  0  0
 10 12  2  0  0  0  0
 10 14  1  0  0  0  0
 11 13  2  0  0  0  0
 11 15  1  0  0  0  0
 12 16  1  0  0  0  0
 12 36  1  0  0  0  0
 13 17  1  0  0  0  0
 13 37  1  0  0  0  0
 14 18  2  0  0  0  0
 14 38  1  0  0  0  0
 15 19  2  0  0  0  0
 15 39  1  0  0  0  0
 16 20  2  0  0  0  0
 16 40  1  0  0  0  0
 17 21  2  0  0  0  0
 17 41  1  0  0  0  0
 18 20  1  0  0  0  0
 18 42  1  0  0  0  0
 19 21  1  0  0  0  0
 19 43  1  0  0  0  0
 20 44  1  0  0  0  0
 21 45  1  0  0  0  0
M  CHG  1   1   1
M  END
