DB13853
 OpenBabel07062211533D

 22 23  0  0  0  0  0  0  0  0999 V2000
   -2.9146   -0.0017    1.9958 S   0  0  0  0  0  0  0  0  0  0  0  0
   -4.8357   -0.3048    1.3753 S   0  0  0  0  0  0  0  0  0  0  0  0
   -5.7026   -0.6266   -1.4895 S   0  0  0  0  0  0  0  0  0  0  0  0
    3.2807    0.7255   -0.1633 O   0  0  0  0  0  0  0  0  0  0  0  0
   -0.8134    0.1845    0.2524 C   0  0  0  0  0  0  0  0  0  0  0  0
   -2.2602   -0.0071    0.3986 C   0  0  0  0  0  0  0  0  0  0  0  0
   -0.2915    1.4690    0.1009 C   0  0  0  0  0  0  0  0  0  0  0  0
    0.0406   -0.9185    0.2643 C   0  0  0  0  0  0  0  0  0  0  0  0
    1.9384    0.5479   -0.0268 C   0  0  0  0  0  0  0  0  0  0  0  0
    1.0845    1.6507   -0.0388 C   0  0  0  0  0  0  0  0  0  0  0  0
    1.4165   -0.7366    0.1248 C   0  0  0  0  0  0  0  0  0  0  0  0
   -3.0679   -0.1918   -0.6532 C   0  0  0  0  0  0  0  0  0  0  0  0
   -4.5043   -0.3771   -0.3501 C   0  0  0  0  0  0  0  0  0  0  0  0
    4.0963   -0.4453   -0.1423 C   0  0  0  0  0  0  0  0  0  0  0  0
   -0.9435    2.3392    0.0889 H   0  0  0  0  0  0  0  0  0  0  0  0
   -0.3514   -1.9262    0.3810 H   0  0  0  0  0  0  0  0  0  0  0  0
    1.4853    2.6537   -0.1567 H   0  0  0  0  0  0  0  0  0  0  0  0
    2.0220   -1.6363    0.1427 H   0  0  0  0  0  0  0  0  0  0  0  0
   -2.7172   -0.2098   -1.6784 H   0  0  0  0  0  0  0  0  0  0  0  0
    3.8699   -1.1085   -0.9841 H   0  0  0  0  0  0  0  0  0  0  0  0
    4.0339   -0.9618    0.8216 H   0  0  0  0  0  0  0  0  0  0  0  0
    5.1342   -0.1183   -0.2631 H   0  0  0  0  0  0  0  0  0  0  0  0
  1  2  1  0  0  0  0
  1  6  1  0  0  0  0
  2 13  1  0  0  0  0
  3 13  2  0  0  0  0
  4  9  1  0  0  0  0
  4 14  1  0  0  0  0
  5  6  1  0  0  0  0
  5  7  2  0  0  0  0
  5  8  1  0  0  0  0
  6 12  2  0  0  0  0
  7 10  1  0  0  0  0
  7 15  1  0  0  0  0
  8 11  2  0  0  0  0
  8 16  1  0  0  0  0
  9 10  2  0  0  0  0
  9 11  1  0  0  0  0
 10 17  1  0  0  0  0
 11 18  1  0  0  0  0
 12 13  1  0  0  0  0
 12 19  1  0  0  0  0
 14 20  1  0  0  0  0
 14 21  1  0  0  0  0
 14 22  1  0  0  0  0
M  END
