DB13766
 OpenBabel07062211533D

 71 74  0  0  0  0  0  0  0  0999 V2000
    6.4529   -4.5957    3.0710 F   0  0  0  0  0  0  0  0  0  0  0  0
    5.8839    4.6343    1.8345 F   0  0  0  0  0  0  0  0  0  0  0  0
   -4.5319    0.9243   -1.4549 O   0  0  0  0  0  0  0  0  0  0  0  0
    0.7459    0.2263   -1.6877 N   0  0  0  0  0  0  0  0  0  0  0  0
   -1.8704    1.0105   -0.7396 N   0  0  0  0  0  0  0  0  0  0  0  0
   -5.0601    0.2507    0.7311 N   0  0  0  0  0  0  0  0  0  0  0  0
   -0.4520   -0.5526   -2.0247 C   0  0  0  0  0  0  0  0  0  0  0  0
    0.3992    1.6389   -1.4892 C   0  0  0  0  0  0  0  0  0  0  0  0
    1.7666    0.0828   -2.7237 C   0  0  0  0  0  0  0  0  0  0  0  0
   -1.5233   -0.4020   -0.9391 C   0  0  0  0  0  0  0  0  0  0  0  0
   -0.6726    1.7905   -0.4044 C   0  0  0  0  0  0  0  0  0  0  0  0
    3.1543    0.3533   -2.1425 C   0  0  0  0  0  0  0  0  0  0  0  0
    3.4704   -0.6164   -0.9945 C   0  0  0  0  0  0  0  0  0  0  0  0
    4.9107   -0.4452   -0.4462 C   0  0  0  0  0  0  0  0  0  0  0  0
   -2.8899    1.1530    0.2979 C   0  0  0  0  0  0  0  0  0  0  0  0
    5.3269   -1.5654    0.5025 C   0  0  0  0  0  0  0  0  0  0  0  0
    5.1734    0.9237    0.1688 C   0  0  0  0  0  0  0  0  0  0  0  0
   -4.2463    0.7745   -0.2712 C   0  0  0  0  0  0  0  0  0  0  0  0
    4.3669   -2.2143    1.2788 C   0  0  0  0  0  0  0  0  0  0  0  0
    4.1310    1.6296    0.7697 C   0  0  0  0  0  0  0  0  0  0  0  0
    6.6674   -1.9400    0.5939 C   0  0  0  0  0  0  0  0  0  0  0  0
    6.4556    1.4714    0.1303 C   0  0  0  0  0  0  0  0  0  0  0  0
   -6.3904   -0.2165    0.6075 C   0  0  0  0  0  0  0  0  0  0  0  0
    4.7472   -3.2381    2.1465 C   0  0  0  0  0  0  0  0  0  0  0  0
    4.3711    2.8830    1.3325 C   0  0  0  0  0  0  0  0  0  0  0  0
    7.0479   -2.9637    1.4616 C   0  0  0  0  0  0  0  0  0  0  0  0
    6.6956    2.7249    0.6930 C   0  0  0  0  0  0  0  0  0  0  0  0
    6.0877   -3.6127    2.2378 C   0  0  0  0  0  0  0  0  0  0  0  0
    5.6534    3.4308    1.2941 C   0  0  0  0  0  0  0  0  0  0  0  0
   -6.6807   -1.2742   -0.2542 C   0  0  0  0  0  0  0  0  0  0  0  0
   -7.4108    0.3804    1.3476 C   0  0  0  0  0  0  0  0  0  0  0  0
   -7.9917   -1.7350   -0.3757 C   0  0  0  0  0  0  0  0  0  0  0  0
   -8.7218   -0.0804    1.2262 C   0  0  0  0  0  0  0  0  0  0  0  0
   -5.6093   -1.9341   -1.0606 C   0  0  0  0  0  0  0  0  0  0  0  0
   -7.1314    1.5153    2.2789 C   0  0  0  0  0  0  0  0  0  0  0  0
   -9.0123   -1.1380    0.3645 C   0  0  0  0  0  0  0  0  0  0  0  0
   -0.1950   -1.6160   -2.1031 H   0  0  0  0  0  0  0  0  0  0  0  0
   -0.8607   -0.2412   -2.9957 H   0  0  0  0  0  0  0  0  0  0  0  0
    1.2767    2.2117   -1.1701 H   0  0  0  0  0  0  0  0  0  0  0  0
    0.0383    2.0900   -2.4237 H   0  0  0  0  0  0  0  0  0  0  0  0
    1.5753    0.7366   -3.5841 H   0  0  0  0  0  0  0  0  0  0  0  0
    1.7727   -0.9437   -3.1143 H   0  0  0  0  0  0  0  0  0  0  0  0
   -1.1621   -0.8530   -0.0047 H   0  0  0  0  0  0  0  0  0  0  0  0
   -2.4040   -0.9729   -1.2552 H   0  0  0  0  0  0  0  0  0  0  0  0
   -0.9311    2.8535   -0.3255 H   0  0  0  0  0  0  0  0  0  0  0  0
   -0.2631    1.4800    0.5666 H   0  0  0  0  0  0  0  0  0  0  0  0
    3.8934    0.2148   -2.9416 H   0  0  0  0  0  0  0  0  0  0  0  0
    3.2394    1.3969   -1.8268 H   0  0  0  0  0  0  0  0  0  0  0  0
    3.3675   -1.6402   -1.3821 H   0  0  0  0  0  0  0  0  0  0  0  0
    2.7182   -0.5206   -0.2059 H   0  0  0  0  0  0  0  0  0  0  0  0
    5.5614   -0.5306   -1.3304 H   0  0  0  0  0  0  0  0  0  0  0  0
   -2.6461    0.5680    1.1931 H   0  0  0  0  0  0  0  0  0  0  0  0
   -2.9866    2.2026    0.6052 H   0  0  0  0  0  0  0  0  0  0  0  0
    3.3171   -1.9433    1.2540 H   0  0  0  0  0  0  0  0  0  0  0  0
    3.1238    1.2355    0.8448 H   0  0  0  0  0  0  0  0  0  0  0  0
    7.4277   -1.4543   -0.0109 H   0  0  0  0  0  0  0  0  0  0  0  0
    7.2772    0.9421   -0.3436 H   0  0  0  0  0  0  0  0  0  0  0  0
   -4.8077    0.5402    1.6740 H   0  0  0  0  0  0  0  0  0  0  0  0
    4.0011   -3.7410    2.7545 H   0  0  0  0  0  0  0  0  0  0  0  0
    3.5612    3.4310    1.8049 H   0  0  0  0  0  0  0  0  0  0  0  0
    8.0911   -3.2575    1.5312 H   0  0  0  0  0  0  0  0  0  0  0  0
    7.6933    3.1529    0.6612 H   0  0  0  0  0  0  0  0  0  0  0  0
   -8.2345   -2.5564   -1.0447 H   0  0  0  0  0  0  0  0  0  0  0  0
   -9.5290    0.3724    1.7960 H   0  0  0  0  0  0  0  0  0  0  0  0
   -5.4348   -1.3904   -1.9931 H   0  0  0  0  0  0  0  0  0  0  0  0
   -4.6729   -2.0291   -0.5023 H   0  0  0  0  0  0  0  0  0  0  0  0
   -5.9008   -2.9570   -1.3275 H   0  0  0  0  0  0  0  0  0  0  0  0
   -6.5247    1.1747    3.1244 H   0  0  0  0  0  0  0  0  0  0  0  0
   -6.6082    2.3245    1.7584 H   0  0  0  0  0  0  0  0  0  0  0  0
   -8.0540    1.9427    2.6869 H   0  0  0  0  0  0  0  0  0  0  0  0
  -10.0330   -1.4966    0.2695 H   0  0  0  0  0  0  0  0  0  0  0  0
  1 28  1  0  0  0  0
  2 29  1  0  0  0  0
  3 18  2  0  0  0  0
  4  7  1  0  0  0  0
  4  8  1  0  0  0  0
  4  9  1  0  0  0  0
  5 10  1  0  0  0  0
  5 11  1  0  0  0  0
  5 15  1  0  0  0  0
  6 18  1  0  0  0  0
  6 23  1  0  0  0  0
  6 58  1  0  0  0  0
  7 10  1  0  0  0  0
  7 37  1  0  0  0  0
  7 38  1  0  0  0  0
  8 11  1  0  0  0  0
  8 39  1  0  0  0  0
  8 40  1  0  0  0  0
  9 12  1  0  0  0  0
  9 41  1  0  0  0  0
  9 42  1  0  0  0  0
 10 43  1  0  0  0  0
 10 44  1  0  0  0  0
 11 45  1  0  0  0  0
 11 46  1  0  0  0  0
 12 13  1  0  0  0  0
 12 47  1  0  0  0  0
 12 48  1  0  0  0  0
 13 14  1  0  0  0  0
 13 49  1  0  0  0  0
 13 50  1  0  0  0  0
 14 16  1  0  0  0  0
 14 17  1  0  0  0  0
 14 51  1  0  0  0  0
 15 18  1  0  0  0  0
 15 52  1  0  0  0  0
 15 53  1  0  0  0  0
 16 19  2  0  0  0  0
 16 21  1  0  0  0  0
 17 20  2  0  0  0  0
 17 22  1  0  0  0  0
 19 24  1  0  0  0  0
 19 54  1  0  0  0  0
 20 25  1  0  0  0  0
 20 55  1  0  0  0  0
 21 26  2  0  0  0  0
 21 56  1  0  0  0  0
 22 27  2  0  0  0  0
 22 57  1  0  0  0  0
 23 30  2  0  0  0  0
 23 31  1  0  0  0  0
 24 28  2  0  0  0  0
 24 59  1  0  0  0  0
 25 29  2  0  0  0  0
 25 60  1  0  0  0  0
 26 28  1  0  0  0  0
 26 61  1  0  0  0  0
 27 29  1  0  0  0  0
 27 62  1  0  0  0  0
 30 32  1  0  0  0  0
 30 34  1  0  0  0  0
 31 33  2  0  0  0  0
 31 35  1  0  0  0  0
 32 36  2  0  0  0  0
 32 63  1  0  0  0  0
 33 36  1  0  0  0  0
 33 64  1  0  0  0  0
 34 65  1  0  0  0  0
 34 66  1  0  0  0  0
 34 67  1  0  0  0  0
 35 68  1  0  0  0  0
 35 69  1  0  0  0  0
 35 70  1  0  0  0  0
 36 71  1  0  0  0  0
M  END
