DB13270
 OpenBabel07062211533D

 68 70  0  0  1  0  0  0  0  0999 V2000
   -1.3543   -0.9104   -0.3714 O   0  0  0  0  0  0  0  0  0  0  0  0
    1.1954   -0.2189    0.7098 O   0  0  0  0  0  0  0  0  0  0  0  0
   -0.1867   -3.2435    2.1767 O   0  0  0  0  0  0  0  0  0  0  0  0
   -3.6771   -0.5531   -0.0718 O   0  0  0  0  0  0  0  0  0  0  0  0
    3.3007    0.6848    1.2784 O   0  0  0  0  0  0  0  0  0  0  0  0
   -1.5857   -0.2315   -3.0500 O   0  0  0  0  0  0  0  0  0  0  0  0
   -3.2419    3.1036    0.0284 O   0  0  0  0  0  0  0  0  0  0  0  0
   -4.6031   -0.1329    2.4590 O   0  0  0  0  0  0  0  0  0  0  0  0
   -0.4259   -4.4772   -0.5660 N   0  0  0  0  0  0  0  0  0  0  0  0
    2.2996   -3.7413    0.5871 N   0  0  0  0  0  0  0  0  0  0  0  0
   -2.6354    2.5144   -2.7464 N   0  0  0  0  0  0  0  0  0  0  0  0
   -0.1143    1.9860    1.9775 N   0  0  0  0  0  0  0  0  0  0  0  0
    5.4021    1.8303   -1.5218 N   0  0  0  0  0  0  0  0  0  0  0  0
   -1.0692   -2.2047    0.1640 C   0  0  2  0  0  0  0  0  0  0  0  0
    1.2224   -1.5830    1.1361 C   0  0  1  0  0  0  0  0  0  0  0  0
   -0.2189   -2.0287    1.4342 C   0  0  2  0  0  0  0  0  0  0  0  0
   -0.3909   -3.0584   -0.9244 C   0  0  1  0  0  0  0  0  0  0  0  0
    1.9248   -2.4300    0.0576 C   0  0  2  0  0  0  0  0  0  0  0  0
    1.0453   -2.5730   -1.1978 C   0  0  0  0  0  0  0  0  0  0  0  0
   -2.6373   -0.8803   -0.9940 C   0  0  1  0  0  0  0  0  0  0  0  0
    1.9085    0.6138    1.6092 C   0  0  1  0  0  0  0  0  0  0  0  0
   -2.6406    0.1123   -2.1585 C   0  0  1  0  0  0  0  0  0  0  0  0
   -2.4841    1.5513   -1.6491 C   0  0  2  0  0  0  0  0  0  0  0  0
    1.3063    2.0261    1.6382 C   0  0  1  0  0  0  0  0  0  0  0  0
   -3.5351    1.8408   -0.5646 C   0  0  1  0  0  0  0  0  0  0  0  0
   -3.5292    0.7454    0.5136 C   0  0  1  0  0  0  0  0  0  0  0  0
    1.5294    2.7377    0.3013 C   0  0  0  0  0  0  0  0  0  0  0  0
    3.5545    1.2747   -0.0020 C   0  0  1  0  0  0  0  0  0  0  0  0
    3.0124    2.7044   -0.0593 C   0  0  0  0  0  0  0  0  0  0  0  0
   -4.6724    0.9161    1.5109 C   0  0  0  0  0  0  0  0  0  0  0  0
    5.0601    1.2531   -0.2294 C   0  0  0  0  0  0  0  0  0  0  0  0
   -2.0089   -2.6861    0.4728 H   0  0  0  0  0  0  0  0  0  0  0  0
    1.8123   -1.6916    2.0574 H   0  0  0  0  0  0  0  0  0  0  0  0
   -0.7002   -1.2709    2.0658 H   0  0  0  0  0  0  0  0  0  0  0  0
   -0.9412   -2.9567   -1.8671 H   0  0  0  0  0  0  0  0  0  0  0  0
    2.8482   -1.9211   -0.2460 H   0  0  0  0  0  0  0  0  0  0  0  0
    1.5333   -3.2344   -1.9264 H   0  0  0  0  0  0  0  0  0  0  0  0
    0.9882   -1.5921   -1.6896 H   0  0  0  0  0  0  0  0  0  0  0  0
   -2.8770   -1.8665   -1.4110 H   0  0  0  0  0  0  0  0  0  0  0  0
    1.8433    0.2292    2.6358 H   0  0  0  0  0  0  0  0  0  0  0  0
   -3.5912    0.0275   -2.7017 H   0  0  0  0  0  0  0  0  0  0  0  0
   -1.4738    1.6941   -1.2447 H   0  0  0  0  0  0  0  0  0  0  0  0
    1.8297    2.6046    2.4111 H   0  0  0  0  0  0  0  0  0  0  0  0
   -4.5312    1.9008   -1.0219 H   0  0  0  0  0  0  0  0  0  0  0  0
   -2.5910    0.7634    1.0816 H   0  0  0  0  0  0  0  0  0  0  0  0
   -1.3934   -4.7858   -0.4793 H   0  0  0  0  0  0  0  0  0  0  0  0
   -0.0121   -5.0307   -1.3150 H   0  0  0  0  0  0  0  0  0  0  0  0
    2.9446   -3.6258    1.3676 H   0  0  0  0  0  0  0  0  0  0  0  0
    2.8017   -4.2688   -0.1257 H   0  0  0  0  0  0  0  0  0  0  0  0
    0.9502    2.2524   -0.4948 H   0  0  0  0  0  0  0  0  0  0  0  0
    1.1872    3.7780    0.3572 H   0  0  0  0  0  0  0  0  0  0  0  0
    3.0688    0.6614   -0.7723 H   0  0  0  0  0  0  0  0  0  0  0  0
    0.2996   -3.0731    3.0011 H   0  0  0  0  0  0  0  0  0  0  0  0
    3.5549    3.3347    0.6573 H   0  0  0  0  0  0  0  0  0  0  0  0
    3.1476    3.1451   -1.0529 H   0  0  0  0  0  0  0  0  0  0  0  0
   -5.6423    0.8471    1.0069 H   0  0  0  0  0  0  0  0  0  0  0  0
   -4.6046    1.8737    2.0361 H   0  0  0  0  0  0  0  0  0  0  0  0
   -1.9154    2.3460   -3.4477 H   0  0  0  0  0  0  0  0  0  0  0  0
   -2.4823    3.4585   -2.3940 H   0  0  0  0  0  0  0  0  0  0  0  0
    5.5741    1.8030    0.5677 H   0  0  0  0  0  0  0  0  0  0  0  0
    5.4279    0.2216   -0.1743 H   0  0  0  0  0  0  0  0  0  0  0  0
   -0.2374    1.5574    2.8938 H   0  0  0  0  0  0  0  0  0  0  0  0
   -0.4775    2.9352    2.0501 H   0  0  0  0  0  0  0  0  0  0  0  0
   -1.7483   -1.1376   -3.3628 H   0  0  0  0  0  0  0  0  0  0  0  0
   -2.3667    3.0416    0.4478 H   0  0  0  0  0  0  0  0  0  0  0  0
    6.4066    1.7495   -1.6736 H   0  0  0  0  0  0  0  0  0  0  0  0
    4.9565    1.2953   -2.2662 H   0  0  0  0  0  0  0  0  0  0  0  0
   -5.3398   -0.0067    3.0811 H   0  0  0  0  0  0  0  0  0  0  0  0
  1 14  1  0  0  0  0
  1 20  1  0  0  0  0
  2 15  1  0  0  0  0
  2 21  1  0  0  0  0
  3 16  1  0  0  0  0
  3 53  1  0  0  0  0
  4 20  1  0  0  0  0
  4 26  1  0  0  0  0
  5 21  1  0  0  0  0
  5 28  1  0  0  0  0
  6 22  1  0  0  0  0
  6 64  1  0  0  0  0
  7 25  1  0  0  0  0
  7 65  1  0  0  0  0
  8 30  1  0  0  0  0
  8 68  1  0  0  0  0
  9 17  1  0  0  0  0
  9 46  1  0  0  0  0
  9 47  1  0  0  0  0
 10 18  1  0  0  0  0
 10 48  1  0  0  0  0
 10 49  1  0  0  0  0
 11 23  1  0  0  0  0
 11 58  1  0  0  0  0
 11 59  1  0  0  0  0
 12 24  1  0  0  0  0
 12 62  1  0  0  0  0
 12 63  1  0  0  0  0
 13 31  1  0  0  0  0
 13 66  1  0  0  0  0
 13 67  1  0  0  0  0
 14 16  1  1  0  0  0
 14 32  1  0  0  0  0
 15 16  1  1  0  0  0
 15 33  1  0  0  0  0
 16 34  1  1  0  0  0
 17 14  1  1  0  0  0
 17 19  1  0  0  0  0
 17 35  1  0  0  0  0
 18 15  1  1  0  0  0
 18 19  1  0  0  0  0
 18 36  1  0  0  0  0
 19 37  1  0  0  0  0
 19 38  1  0  0  0  0
 20 22  1  6  0  0  0
 20 39  1  0  0  0  0
 21 24  1  6  0  0  0
 21 40  1  0  0  0  0
 22 23  1  1  0  0  0
 22 41  1  0  0  0  0
 23 25  1  1  0  0  0
 23 42  1  0  0  0  0
 24 27  1  0  0  0  0
 24 43  1  1  0  0  0
 25 26  1  1  0  0  0
 25 44  1  0  0  0  0
 26 30  1  0  0  0  0
 26 45  1  1  0  0  0
 27 29  1  0  0  0  0
 27 50  1  0  0  0  0
 27 51  1  0  0  0  0
 28 29  1  0  0  0  0
 28 31  1  0  0  0  0
 28 52  1  6  0  0  0
 29 54  1  0  0  0  0
 29 55  1  0  0  0  0
 30 56  1  0  0  0  0
 30 57  1  0  0  0  0
 31 60  1  0  0  0  0
 31 61  1  0  0  0  0
M  END
