DB13952
 OpenBabel07062211533D

 49 52  0  0  1  0  0  0  0  0999 V2000
   -5.3385    1.3496   -0.6268 O   0  0  0  0  0  0  0  0  0  0  0  0
    5.4900    0.0162    0.4789 O   0  0  0  0  0  0  0  0  0  0  0  0
    5.3554    0.4609   -1.8153 O   0  0  0  0  0  0  0  0  0  0  0  0
   -2.9897    0.7088   -0.2337 C   0  0  1  0  0  0  0  0  0  0  0  0
   -2.4141   -0.5971    0.3500 C   0  0  2  0  0  0  0  0  0  0  0  0
   -0.9096   -0.7219    0.1111 C   0  0  1  0  0  0  0  0  0  0  0  0
   -0.1912    0.4628    0.8257 C   0  0  2  0  0  0  0  0  0  0  0  0
   -4.4779    0.4978    0.1045 C   0  0  2  0  0  0  0  0  0  0  0  0
   -2.3253    1.8876    0.4878 C   0  0  0  0  0  0  0  0  0  0  0  0
   -3.3497   -1.6726   -0.1952 C   0  0  0  0  0  0  0  0  0  0  0  0
   -0.7887    1.8277    0.3891 C   0  0  0  0  0  0  0  0  0  0  0  0
   -4.7280   -0.9871   -0.2248 C   0  0  0  0  0  0  0  0  0  0  0  0
   -0.3383   -2.0399    0.6373 C   0  0  0  0  0  0  0  0  0  0  0  0
   -2.8034    0.8747   -1.7637 C   0  0  0  0  0  0  0  0  0  0  0  0
    1.3253    0.3493    0.6961 C   0  0  0  0  0  0  0  0  0  0  0  0
    1.1299   -2.1624    0.2411 C   0  0  0  0  0  0  0  0  0  0  0  0
    1.9331   -0.9039    0.4623 C   0  0  0  0  0  0  0  0  0  0  0  0
    2.1581    1.4650    0.8938 C   0  0  0  0  0  0  0  0  0  0  0  0
    3.3337   -0.9986    0.3794 C   0  0  0  0  0  0  0  0  0  0  0  0
    3.5483    1.3551    0.8179 C   0  0  0  0  0  0  0  0  0  0  0  0
    4.1363    0.1245    0.5559 C   0  0  0  0  0  0  0  0  0  0  0  0
    6.0100    0.2133   -0.8113 C   0  0  0  0  0  0  0  0  0  0  0  0
    7.5033    0.0739   -0.7912 C   0  0  0  0  0  0  0  0  0  0  0  0
   -2.5644   -0.5895    1.4427 H   0  0  0  0  0  0  0  0  0  0  0  0
   -0.7046   -0.6810   -0.9665 H   0  0  0  0  0  0  0  0  0  0  0  0
   -0.3911    0.3702    1.9046 H   0  0  0  0  0  0  0  0  0  0  0  0
   -4.6589    0.6715    1.1727 H   0  0  0  0  0  0  0  0  0  0  0  0
   -2.6030    1.8801    1.5500 H   0  0  0  0  0  0  0  0  0  0  0  0
   -2.6835    2.8418    0.0835 H   0  0  0  0  0  0  0  0  0  0  0  0
   -3.3635   -2.5645    0.4393 H   0  0  0  0  0  0  0  0  0  0  0  0
   -3.0570   -1.9869   -1.2032 H   0  0  0  0  0  0  0  0  0  0  0  0
   -0.4699    2.0618   -0.6338 H   0  0  0  0  0  0  0  0  0  0  0  0
   -0.3963    2.6324    1.0216 H   0  0  0  0  0  0  0  0  0  0  0  0
   -5.2070   -1.1181   -1.2016 H   0  0  0  0  0  0  0  0  0  0  0  0
   -5.3990   -1.4286    0.5204 H   0  0  0  0  0  0  0  0  0  0  0  0
   -0.8857   -2.8994    0.2346 H   0  0  0  0  0  0  0  0  0  0  0  0
   -0.4355   -2.0828    1.7298 H   0  0  0  0  0  0  0  0  0  0  0  0
   -3.2397    1.8209   -2.1047 H   0  0  0  0  0  0  0  0  0  0  0  0
   -1.7521    0.8874   -2.0630 H   0  0  0  0  0  0  0  0  0  0  0  0
   -3.2868    0.0749   -2.3335 H   0  0  0  0  0  0  0  0  0  0  0  0
    1.1919   -2.4171   -0.8248 H   0  0  0  0  0  0  0  0  0  0  0  0
    1.5760   -2.9916    0.8036 H   0  0  0  0  0  0  0  0  0  0  0  0
   -6.2520    1.0904   -0.4180 H   0  0  0  0  0  0  0  0  0  0  0  0
    1.7437    2.4430    1.1188 H   0  0  0  0  0  0  0  0  0  0  0  0
    3.7987   -1.9615    0.1777 H   0  0  0  0  0  0  0  0  0  0  0  0
    4.1640    2.2375    0.9700 H   0  0  0  0  0  0  0  0  0  0  0  0
    7.9349    0.8238   -0.1239 H   0  0  0  0  0  0  0  0  0  0  0  0
    7.8965    0.2350   -1.7989 H   0  0  0  0  0  0  0  0  0  0  0  0
    7.7752   -0.9334   -0.4665 H   0  0  0  0  0  0  0  0  0  0  0  0
  1  8  1  0  0  0  0
  1 43  1  0  0  0  0
  2 21  1  0  0  0  0
  2 22  1  0  0  0  0
  3 22  2  0  0  0  0
  4  5  1  1  0  0  0
  4  9  1  0  0  0  0
  4 14  1  0  0  0  0
  5  6  1  6  0  0  0
  5 10  1  0  0  0  0
  5 24  1  0  0  0  0
  6  7  1  1  0  0  0
  6 13  1  0  0  0  0
  6 25  1  0  0  0  0
  7 11  1  0  0  0  0
  7 15  1  0  0  0  0
  7 26  1  1  0  0  0
  8  4  1  6  0  0  0
  8 12  1  0  0  0  0
  8 27  1  0  0  0  0
  9 11  1  0  0  0  0
  9 28  1  0  0  0  0
  9 29  1  0  0  0  0
 10 12  1  0  0  0  0
 10 30  1  0  0  0  0
 10 31  1  0  0  0  0
 11 32  1  0  0  0  0
 11 33  1  0  0  0  0
 12 34  1  0  0  0  0
 12 35  1  0  0  0  0
 13 16  1  0  0  0  0
 13 36  1  0  0  0  0
 13 37  1  0  0  0  0
 14 38  1  0  0  0  0
 14 39  1  0  0  0  0
 14 40  1  0  0  0  0
 15 17  2  0  0  0  0
 15 18  1  0  0  0  0
 16 17  1  0  0  0  0
 16 41  1  0  0  0  0
 16 42  1  0  0  0  0
 17 19  1  0  0  0  0
 18 20  2  0  0  0  0
 18 44  1  0  0  0  0
 19 21  2  0  0  0  0
 19 45  1  0  0  0  0
 20 21  1  0  0  0  0
 20 46  1  0  0  0  0
 22 23  1  0  0  0  0
 23 47  1  0  0  0  0
 23 48  1  0  0  0  0
 23 49  1  0  0  0  0
M  END
