DB13421
 OpenBabel07062211533D

 34 35  0  0  1  0  0  0  0  0999 V2000
    1.4382    0.2231    1.2283 O   0  0  0  0  0  0  0  0  0  0  0  0
    4.2656   -0.6788    0.4768 O   0  0  0  0  0  0  0  0  0  0  0  0
    1.1798    2.9567    0.6674 O   0  0  0  0  0  0  0  0  0  0  0  0
    0.0313   -3.6072    0.6254 O   0  0  0  0  0  0  0  0  0  0  0  0
   -4.0234   -1.7863   -0.5543 O   0  0  0  0  0  0  0  0  0  0  0  0
   -0.0818   -1.2974    0.3052 N   0  0  0  0  0  0  0  0  0  0  0  0
   -1.9848   -2.6859    0.0362 N   0  0  0  0  0  0  0  0  0  0  0  0
    1.3011   -1.0586    0.5985 C   0  0  1  0  0  0  0  0  0  0  0  0
    3.2432   -0.0417   -0.2860 C   0  0  1  0  0  0  0  0  0  0  0  0
    2.1743   -1.0478   -0.6456 C   0  0  0  0  0  0  0  0  0  0  0  0
    2.4956    0.9594    0.5837 C   0  0  1  0  0  0  0  0  0  0  0  0
    1.8591    2.0848   -0.2216 C   0  0  0  0  0  0  0  0  0  0  0  0
   -0.8863   -0.2133   -0.0213 C   0  0  0  0  0  0  0  0  0  0  0  0
   -0.6224   -2.6005    0.3442 C   0  0  0  0  0  0  0  0  0  0  0  0
   -2.1895   -0.2984   -0.3156 C   0  0  0  0  0  0  0  0  0  0  0  0
   -2.8321   -1.6394   -0.2949 C   0  0  0  0  0  0  0  0  0  0  0  0
   -3.0377    0.8821   -0.6645 C   0  0  0  0  0  0  0  0  0  0  0  0
   -3.6769    1.5017    0.5650 C   0  0  0  0  0  0  0  0  0  0  0  0
    1.6654   -1.8106    1.3084 H   0  0  0  0  0  0  0  0  0  0  0  0
    3.7193    0.4159   -1.1582 H   0  0  0  0  0  0  0  0  0  0  0  0
    1.6132   -0.6937   -1.5187 H   0  0  0  0  0  0  0  0  0  0  0  0
    2.5583   -2.0468   -0.8751 H   0  0  0  0  0  0  0  0  0  0  0  0
    3.1265    1.3736    1.3780 H   0  0  0  0  0  0  0  0  0  0  0  0
    1.1553    1.7277   -0.9767 H   0  0  0  0  0  0  0  0  0  0  0  0
    2.6362    2.6632   -0.7324 H   0  0  0  0  0  0  0  0  0  0  0  0
   -0.4329    0.7645   -0.0287 H   0  0  0  0  0  0  0  0  0  0  0  0
    4.6788   -1.3493   -0.0937 H   0  0  0  0  0  0  0  0  0  0  0  0
   -2.3961   -3.6149    0.0583 H   0  0  0  0  0  0  0  0  0  0  0  0
   -2.4261    1.6441   -1.1647 H   0  0  0  0  0  0  0  0  0  0  0  0
   -3.8121    0.6054   -1.3893 H   0  0  0  0  0  0  0  0  0  0  0  0
    0.7949    3.6701    0.1303 H   0  0  0  0  0  0  0  0  0  0  0  0
   -4.2834    2.3673    0.2795 H   0  0  0  0  0  0  0  0  0  0  0  0
   -2.9200    1.8434    1.2793 H   0  0  0  0  0  0  0  0  0  0  0  0
   -4.3306    0.7875    1.0769 H   0  0  0  0  0  0  0  0  0  0  0  0
  1  8  1  0  0  0  0
  1 11  1  0  0  0  0
  2  9  1  0  0  0  0
  2 27  1  0  0  0  0
  3 12  1  0  0  0  0
  3 31  1  0  0  0  0
  4 14  2  0  0  0  0
  5 16  2  0  0  0  0
  6  8  1  0  0  0  0
  6 13  1  0  0  0  0
  6 14  1  0  0  0  0
  7 14  1  0  0  0  0
  7 16  1  0  0  0  0
  7 28  1  0  0  0  0
  8 10  1  0  0  0  0
  8 19  1  1  0  0  0
  9 10  1  0  0  0  0
  9 11  1  1  0  0  0
  9 20  1  0  0  0  0
 10 21  1  0  0  0  0
 10 22  1  0  0  0  0
 11 12  1  0  0  0  0
 11 23  1  1  0  0  0
 12 24  1  0  0  0  0
 12 25  1  0  0  0  0
 13 15  2  0  0  0  0
 13 26  1  0  0  0  0
 15 16  1  0  0  0  0
 15 17  1  0  0  0  0
 17 18  1  0  0  0  0
 17 29  1  0  0  0  0
 17 30  1  0  0  0  0
 18 32  1  0  0  0  0
 18 33  1  0  0  0  0
 18 34  1  0  0  0  0
M  END
