DB13908
 OpenBabel07062211533D

 31 31  0  0  0  0  0  0  0  0999 V2000
    1.2017   -2.4085    0.3269 O   0  0  0  0  0  0  0  0  0  0  0  0
   -1.3239    0.0125   -0.1114 C   0  0  0  0  0  0  0  0  0  0  0  0
   -0.3231   -0.1019    1.0442 C   0  0  0  0  0  0  0  0  0  0  0  0
   -2.7824    0.0137    0.3568 C   0  0  0  0  0  0  0  0  0  0  0  0
    1.1194   -0.0301    0.6103 C   0  0  0  0  0  0  0  0  0  0  0  0
   -3.7428    0.1554   -0.8247 C   0  0  0  0  0  0  0  0  0  0  0  0
    1.8053   -1.1882    0.2741 C   0  0  0  0  0  0  0  0  0  0  0  0
    1.7383    1.2106    0.5548 C   0  0  0  0  0  0  0  0  0  0  0  0
   -5.1908    0.1963   -0.3633 C   0  0  0  0  0  0  0  0  0  0  0  0
    3.7721    0.1375   -0.1860 C   0  0  0  0  0  0  0  0  0  0  0  0
    3.1389   -1.1040   -0.1262 C   0  0  0  0  0  0  0  0  0  0  0  0
    3.0717    1.2947    0.1545 C   0  0  0  0  0  0  0  0  0  0  0  0
    5.1979    0.2281   -0.6136 C   0  0  0  0  0  0  0  0  0  0  0  0
   -1.1691   -0.8151   -0.8150 H   0  0  0  0  0  0  0  0  0  0  0  0
   -1.1261    0.9354   -0.6720 H   0  0  0  0  0  0  0  0  0  0  0  0
   -0.5137   -1.0055    1.6358 H   0  0  0  0  0  0  0  0  0  0  0  0
   -0.5112    0.7190    1.7507 H   0  0  0  0  0  0  0  0  0  0  0  0
   -2.9948   -0.9163    0.8976 H   0  0  0  0  0  0  0  0  0  0  0  0
   -2.9389    0.8407    1.0599 H   0  0  0  0  0  0  0  0  0  0  0  0
   -3.6077   -0.6839   -1.5167 H   0  0  0  0  0  0  0  0  0  0  0  0
   -3.5181    1.0735   -1.3799 H   0  0  0  0  0  0  0  0  0  0  0  0
    1.2020    2.1189    0.8145 H   0  0  0  0  0  0  0  0  0  0  0  0
   -5.3663    1.0460    0.3041 H   0  0  0  0  0  0  0  0  0  0  0  0
   -5.8601    0.2962   -1.2237 H   0  0  0  0  0  0  0  0  0  0  0  0
   -5.4583   -0.7213    0.1705 H   0  0  0  0  0  0  0  0  0  0  0  0
    3.6796   -2.0092   -0.3923 H   0  0  0  0  0  0  0  0  0  0  0  0
    3.5531    2.2680    0.1096 H   0  0  0  0  0  0  0  0  0  0  0  0
    5.7545   -0.6700   -0.3249 H   0  0  0  0  0  0  0  0  0  0  0  0
    5.2573    0.3438   -1.7004 H   0  0  0  0  0  0  0  0  0  0  0  0
    5.6990    1.0805   -0.1424 H   0  0  0  0  0  0  0  0  0  0  0  0
    0.2365   -2.3167    0.3283 H   0  0  0  0  0  0  0  0  0  0  0  0
  1  7  1  0  0  0  0
  1 31  1  0  0  0  0
  2  3  1  0  0  0  0
  2  4  1  0  0  0  0
  2 14  1  0  0  0  0
  2 15  1  0  0  0  0
  3  5  1  0  0  0  0
  3 16  1  0  0  0  0
  3 17  1  0  0  0  0
  4  6  1  0  0  0  0
  4 18  1  0  0  0  0
  4 19  1  0  0  0  0
  5  7  2  0  0  0  0
  5  8  1  0  0  0  0
  6  9  1  0  0  0  0
  6 20  1  0  0  0  0
  6 21  1  0  0  0  0
  7 11  1  0  0  0  0
  8 12  2  0  0  0  0
  8 22  1  0  0  0  0
  9 23  1  0  0  0  0
  9 24  1  0  0  0  0
  9 25  1  0  0  0  0
 10 11  2  0  0  0  0
 10 12  1  0  0  0  0
 10 13  1  0  0  0  0
 11 26  1  0  0  0  0
 12 27  1  0  0  0  0
 13 28  1  0  0  0  0
 13 29  1  0  0  0  0
 13 30  1  0  0  0  0
M  END
