DB13262
 OpenBabel07062211533D

 27 28  0  0  1  0  0  0  0  0999 V2000
    1.5885    0.1082   -0.5370 O   0  0  0  0  0  0  0  0  0  0  0  0
    2.6245   -1.6607    0.5283 O   0  0  0  0  0  0  0  0  0  0  0  0
   -1.3818   -0.2904    1.3126 N   0  0  1  0  0  0  0  0  0  0  0  0
   -0.7496    0.2878   -1.1406 C   0  0  2  0  0  0  0  0  0  0  0  0
    0.3405   -0.5723   -0.4758 C   0  0  2  0  0  0  0  0  0  0  0  0
   -0.9491    1.5639   -0.3044 C   0  0  0  0  0  0  0  0  0  0  0  0
   -2.0601   -0.5100   -1.0850 C   0  0  0  0  0  0  0  0  0  0  0  0
   -0.0483   -0.8479    0.9877 C   0  0  0  0  0  0  0  0  0  0  0  0
   -1.3357    1.1768    1.1319 C   0  0  0  0  0  0  0  0  0  0  0  0
   -2.3812   -0.8550    0.3788 C   0  0  0  0  0  0  0  0  0  0  0  0
    2.6539   -0.5548    0.0056 C   0  0  0  0  0  0  0  0  0  0  0  0
    3.8934    0.2765   -0.1302 C   0  0  0  0  0  0  0  0  0  0  0  0
   -0.4784    0.5495   -2.1687 H   0  0  0  0  0  0  0  0  0  0  0  0
    0.4313   -1.5164   -1.0299 H   0  0  0  0  0  0  0  0  0  0  0  0
   -1.7383    2.1827   -0.7481 H   0  0  0  0  0  0  0  0  0  0  0  0
   -0.0333    2.1662   -0.2979 H   0  0  0  0  0  0  0  0  0  0  0  0
   -1.9698   -1.4293   -1.6754 H   0  0  0  0  0  0  0  0  0  0  0  0
   -2.8777    0.0773   -1.5196 H   0  0  0  0  0  0  0  0  0  0  0  0
   -0.0684   -1.9306    1.1657 H   0  0  0  0  0  0  0  0  0  0  0  0
    0.6748   -0.4395    1.7039 H   0  0  0  0  0  0  0  0  0  0  0  0
   -0.6236    1.6161    1.8419 H   0  0  0  0  0  0  0  0  0  0  0  0
   -2.3100    1.6119    1.3876 H   0  0  0  0  0  0  0  0  0  0  0  0
   -3.3807   -0.4847    0.6388 H   0  0  0  0  0  0  0  0  0  0  0  0
   -2.4305   -1.9439    0.5046 H   0  0  0  0  0  0  0  0  0  0  0  0
    3.7650    1.2220    0.4028 H   0  0  0  0  0  0  0  0  0  0  0  0
    4.1052    0.4556   -1.1872 H   0  0  0  0  0  0  0  0  0  0  0  0
    4.7396   -0.2592    0.3095 H   0  0  0  0  0  0  0  0  0  0  0  0
  1  5  1  0  0  0  0
  1 11  1  0  0  0  0
  2 11  2  0  0  0  0
  3  8  1  6  0  0  0
  3  9  1  0  0  0  0
  3 10  1  0  0  0  0
  4  6  1  0  0  0  0
  4  7  1  0  0  0  0
  4 13  1  6  0  0  0
  5  4  1  6  0  0  0
  5  8  1  0  0  0  0
  5 14  1  0  0  0  0
  6  9  1  0  0  0  0
  6 15  1  0  0  0  0
  6 16  1  0  0  0  0
  7 10  1  0  0  0  0
  7 17  1  0  0  0  0
  7 18  1  0  0  0  0
  8 19  1  0  0  0  0
  8 20  1  0  0  0  0
  9 21  1  0  0  0  0
  9 22  1  0  0  0  0
 10 23  1  0  0  0  0
 10 24  1  0  0  0  0
 11 12  1  0  0  0  0
 12 25  1  0  0  0  0
 12 26  1  0  0  0  0
 12 27  1  0  0  0  0
M  END
