DB13941
 OpenBabel07062211533D

 69 74  0  0  0  0  0  0  0  0999 V2000
    7.3571   -5.5109    0.7374 Cl  0  0  0  0  0  0  0  0  0  0  0  0
  -10.3218   -0.8393   -2.2965 Cl  0  0  0  0  0  0  0  0  0  0  0  0
    2.2243    2.0122    0.5236 N   0  0  0  0  0  0  0  0  0  0  0  0
   -2.1145    1.7663    0.6767 N   0  0  0  0  0  0  0  0  0  0  0  0
    4.6115    0.6293   -0.2171 N   0  0  0  0  0  0  0  0  0  0  0  0
   -4.0937   -0.2682    0.3565 N   0  0  0  0  0  0  0  0  0  0  0  0
    8.3280   -0.9947   -1.3619 N   0  0  0  0  0  0  0  0  0  0  0  0
   -6.8137   -3.4852    0.2410 N   0  0  0  0  0  0  0  0  0  0  0  0
    0.8482    2.1377    1.0022 C   0  0  0  0  0  0  0  0  0  0  0  0
   -1.4605    3.0466    0.4084 C   0  0  0  0  0  0  0  0  0  0  0  0
   -0.0075    2.8653   -0.0363 C   0  0  0  0  0  0  0  0  0  0  0  0
    2.2704    1.2169   -0.7093 C   0  0  0  0  0  0  0  0  0  0  0  0
    3.0718    1.3921    1.5498 C   0  0  0  0  0  0  0  0  0  0  0  0
   -3.4834    1.9794    1.1629 C   0  0  0  0  0  0  0  0  0  0  0  0
   -2.1381    0.9363   -0.5339 C   0  0  0  0  0  0  0  0  0  0  0  0
    3.6989    1.1249   -1.2519 C   0  0  0  0  0  0  0  0  0  0  0  0
    4.5267    1.3072    1.0826 C   0  0  0  0  0  0  0  0  0  0  0  0
   -4.1591    0.6487    1.5015 C   0  0  0  0  0  0  0  0  0  0  0  0
   -2.7700   -0.4292   -0.2525 C   0  0  0  0  0  0  0  0  0  0  0  0
    5.8379    0.0652   -0.5856 C   0  0  0  0  0  0  0  0  0  0  0  0
   -5.0150   -1.3202    0.3031 C   0  0  0  0  0  0  0  0  0  0  0  0
    6.1987   -1.2699   -0.2674 C   0  0  0  0  0  0  0  0  0  0  0  0
   -6.2845   -1.2020   -0.3197 C   0  0  0  0  0  0  0  0  0  0  0  0
    6.7623    0.8421   -1.3004 C   0  0  0  0  0  0  0  0  0  0  0  0
   -4.6833   -2.5517    0.8883 C   0  0  0  0  0  0  0  0  0  0  0  0
    7.4569   -1.7592   -0.6765 C   0  0  0  0  0  0  0  0  0  0  0  0
   -7.1540   -2.3128   -0.3271 C   0  0  0  0  0  0  0  0  0  0  0  0
    5.3141   -2.0957    0.4466 C   0  0  0  0  0  0  0  0  0  0  0  0
   -6.6722    0.0067   -0.9225 C   0  0  0  0  0  0  0  0  0  0  0  0
    7.9692    0.2756   -1.6574 C   0  0  0  0  0  0  0  0  0  0  0  0
   -5.6001   -3.5818    0.8308 C   0  0  0  0  0  0  0  0  0  0  0  0
    7.7861   -3.0723   -0.3515 C   0  0  0  0  0  0  0  0  0  0  0  0
   -8.3934   -2.1702   -0.9449 C   0  0  0  0  0  0  0  0  0  0  0  0
    5.6692   -3.4051    0.7582 C   0  0  0  0  0  0  0  0  0  0  0  0
   -7.9178    0.1214   -1.5331 C   0  0  0  0  0  0  0  0  0  0  0  0
    6.9068   -3.8937    0.3584 C   0  0  0  0  0  0  0  0  0  0  0  0
   -8.7792   -0.9687   -1.5443 C   0  0  0  0  0  0  0  0  0  0  0  0
    0.4298    1.1497    1.2306 H   0  0  0  0  0  0  0  0  0  0  0  0
    0.8332    2.7196    1.9325 H   0  0  0  0  0  0  0  0  0  0  0  0
   -2.0028    3.6168   -0.3573 H   0  0  0  0  0  0  0  0  0  0  0  0
   -1.4644    3.6569    1.3206 H   0  0  0  0  0  0  0  0  0  0  0  0
    0.4156    3.8684   -0.1879 H   0  0  0  0  0  0  0  0  0  0  0  0
   -0.0061    2.4082   -1.0260 H   0  0  0  0  0  0  0  0  0  0  0  0
    1.6952    1.6615   -1.5237 H   0  0  0  0  0  0  0  0  0  0  0  0
    1.8758    0.2065   -0.5368 H   0  0  0  0  0  0  0  0  0  0  0  0
    2.7072    0.3860    1.7982 H   0  0  0  0  0  0  0  0  0  0  0  0
    3.0430    1.9863    2.4711 H   0  0  0  0  0  0  0  0  0  0  0  0
   -4.0824    2.5147    0.4137 H   0  0  0  0  0  0  0  0  0  0  0  0
   -3.4689    2.5956    2.0701 H   0  0  0  0  0  0  0  0  0  0  0  0
   -1.1322    0.7199   -0.9049 H   0  0  0  0  0  0  0  0  0  0  0  0
   -2.6892    1.4382   -1.3405 H   0  0  0  0  0  0  0  0  0  0  0  0
    3.7041    0.4491   -2.1161 H   0  0  0  0  0  0  0  0  0  0  0  0
    4.0327    2.1110   -1.5993 H   0  0  0  0  0  0  0  0  0  0  0  0
    4.9568    2.3133    0.9975 H   0  0  0  0  0  0  0  0  0  0  0  0
    5.1068    0.7659    1.8402 H   0  0  0  0  0  0  0  0  0  0  0  0
   -3.6700    0.1850    2.3678 H   0  0  0  0  0  0  0  0  0  0  0  0
   -5.2014    0.8460    1.7805 H   0  0  0  0  0  0  0  0  0  0  0  0
   -2.8523   -0.9801   -1.1978 H   0  0  0  0  0  0  0  0  0  0  0  0
   -2.1224   -1.0111    0.4159 H   0  0  0  0  0  0  0  0  0  0  0  0
    6.5473    1.8719   -1.5682 H   0  0  0  0  0  0  0  0  0  0  0  0
   -3.7298   -2.7026    1.3849 H   0  0  0  0  0  0  0  0  0  0  0  0
    4.3376   -1.7432    0.7697 H   0  0  0  0  0  0  0  0  0  0  0  0
   -6.0188    0.8756   -0.9332 H   0  0  0  0  0  0  0  0  0  0  0  0
    8.7096    0.8456   -2.2091 H   0  0  0  0  0  0  0  0  0  0  0  0
   -5.3798   -4.5477    1.2734 H   0  0  0  0  0  0  0  0  0  0  0  0
    8.7542   -3.4653   -0.6603 H   0  0  0  0  0  0  0  0  0  0  0  0
   -9.0764   -3.0189   -0.9592 H   0  0  0  0  0  0  0  0  0  0  0  0
    4.9721   -4.0296    1.3102 H   0  0  0  0  0  0  0  0  0  0  0  0
   -8.2005    1.0635   -1.9951 H   0  0  0  0  0  0  0  0  0  0  0  0
  1 36  1  0  0  0  0
  2 37  1  0  0  0  0
  3  9  1  0  0  0  0
  3 12  1  0  0  0  0
  3 13  1  0  0  0  0
  4 10  1  0  0  0  0
  4 14  1  0  0  0  0
  4 15  1  0  0  0  0
  5 16  1  0  0  0  0
  5 17  1  0  0  0  0
  5 20  1  0  0  0  0
  6 18  1  0  0  0  0
  6 19  1  0  0  0  0
  6 21  1  0  0  0  0
  7 26  2  0  0  0  0
  7 30  1  0  0  0  0
  8 27  2  0  0  0  0
  8 31  1  0  0  0  0
  9 11  1  0  0  0  0
  9 38  1  0  0  0  0
  9 39  1  0  0  0  0
 10 11  1  0  0  0  0
 10 40  1  0  0  0  0
 10 41  1  0  0  0  0
 11 42  1  0  0  0  0
 11 43  1  0  0  0  0
 12 16  1  0  0  0  0
 12 44  1  0  0  0  0
 12 45  1  0  0  0  0
 13 17  1  0  0  0  0
 13 46  1  0  0  0  0
 13 47  1  0  0  0  0
 14 18  1  0  0  0  0
 14 48  1  0  0  0  0
 14 49  1  0  0  0  0
 15 19  1  0  0  0  0
 15 50  1  0  0  0  0
 15 51  1  0  0  0  0
 16 52  1  0  0  0  0
 16 53  1  0  0  0  0
 17 54  1  0  0  0  0
 17 55  1  0  0  0  0
 18 56  1  0  0  0  0
 18 57  1  0  0  0  0
 19 58  1  0  0  0  0
 19 59  1  0  0  0  0
 20 22  2  0  0  0  0
 20 24  1  0  0  0  0
 21 23  2  0  0  0  0
 21 25  1  0  0  0  0
 22 26  1  0  0  0  0
 22 28  1  0  0  0  0
 23 27  1  0  0  0  0
 23 29  1  0  0  0  0
 24 30  2  0  0  0  0
 24 60  1  0  0  0  0
 25 31  2  0  0  0  0
 25 61  1  0  0  0  0
 26 32  1  0  0  0  0
 27 33  1  0  0  0  0
 28 34  2  0  0  0  0
 28 62  1  0  0  0  0
 29 35  2  0  0  0  0
 29 63  1  0  0  0  0
 30 64  1  0  0  0  0
 31 65  1  0  0  0  0
 32 36  2  0  0  0  0
 32 66  1  0  0  0  0
 33 37  2  0  0  0  0
 33 67  1  0  0  0  0
 34 36  1  0  0  0  0
 34 68  1  0  0  0  0
 35 37  1  0  0  0  0
 35 69  1  0  0  0  0
M  END
