DB13848
 OpenBabel07062211533D

 25 25  0  0  1  0  0  0  0  0999 V2000
   -0.2994   -2.6789   -0.2715 F   0  0  0  0  0  0  0  0  0  0  0  0
   -2.7755    2.1328    0.6668 O   0  0  0  0  0  0  0  0  0  0  0  0
    1.5062    1.8658   -1.3595 O   0  0  0  0  0  0  0  0  0  0  0  0
   -4.2186   -0.0053   -0.3675 O   0  0  0  0  0  0  0  0  0  0  0  0
    3.2971    1.8909    0.0326 O   0  0  0  0  0  0  0  0  0  0  0  0
    3.4933   -0.8331   -0.2357 N   0  0  0  0  0  0  0  0  0  0  0  0
    1.2759   -0.5844    0.7823 C   0  0  0  0  0  0  0  0  0  0  0  0
    2.1760   -0.2256   -0.4104 C   0  0  1  0  0  0  0  0  0  0  0  0
   -0.1957   -0.4282    0.4752 C   0  0  0  0  0  0  0  0  0  0  0  0
   -0.8099    0.7897    0.7159 C   0  0  0  0  0  0  0  0  0  0  0  0
   -0.9005   -1.5035   -0.0398 C   0  0  0  0  0  0  0  0  0  0  0  0
   -2.1677    0.9365    0.4330 C   0  0  0  0  0  0  0  0  0  0  0  0
    2.4003    1.2724   -0.5265 C   0  0  0  0  0  0  0  0  0  0  0  0
   -2.2585   -1.3565   -0.3227 C   0  0  0  0  0  0  0  0  0  0  0  0
   -2.8922   -0.1366   -0.0862 C   0  0  0  0  0  0  0  0  0  0  0  0
    1.5321    0.0257    1.6594 H   0  0  0  0  0  0  0  0  0  0  0  0
    1.4480   -1.6240    1.0938 H   0  0  0  0  0  0  0  0  0  0  0  0
    1.7654   -0.5951   -1.3571 H   0  0  0  0  0  0  0  0  0  0  0  0
   -0.2500    1.6275    1.1226 H   0  0  0  0  0  0  0  0  0  0  0  0
   -2.8103   -2.2006   -0.7274 H   0  0  0  0  0  0  0  0  0  0  0  0
    3.3989   -1.8476   -0.1988 H   0  0  0  0  0  0  0  0  0  0  0  0
    3.8847   -0.5583    0.6650 H   0  0  0  0  0  0  0  0  0  0  0  0
   -3.7119    2.0548    0.4142 H   0  0  0  0  0  0  0  0  0  0  0  0
    1.6654    2.8305   -1.4392 H   0  0  0  0  0  0  0  0  0  0  0  0
   -4.5529   -0.8485   -0.7186 H   0  0  0  0  0  0  0  0  0  0  0  0
  1 11  1  0  0  0  0
  2 12  1  0  0  0  0
  2 23  1  0  0  0  0
  3 13  1  0  0  0  0
  3 24  1  0  0  0  0
  4 15  1  0  0  0  0
  4 25  1  0  0  0  0
  5 13  2  0  0  0  0
  6  8  1  0  0  0  0
  6 21  1  0  0  0  0
  6 22  1  0  0  0  0
  7  8  1  0  0  0  0
  7  9  1  0  0  0  0
  7 16  1  0  0  0  0
  7 17  1  0  0  0  0
  8 13  1  0  0  0  0
  8 18  1  6  0  0  0
  9 10  2  0  0  0  0
  9 11  1  0  0  0  0
 10 12  1  0  0  0  0
 10 19  1  0  0  0  0
 11 14  2  0  0  0  0
 12 15  2  0  0  0  0
 14 15  1  0  0  0  0
 14 20  1  0  0  0  0
M  END
