DB13801
 OpenBabel07062211533D

 28 29  0  0  1  0  0  0  0  0999 V2000
    2.6623   -3.2520   -1.0449 Cl  0  0  0  0  0  0  0  0  0  0  0  0
    5.0001   -2.0690    0.8535 Cl  0  0  0  0  0  0  0  0  0  0  0  0
   -1.1297    1.5297    2.2337 O   0  0  0  0  0  0  0  0  0  0  0  0
   -1.0696    0.6030    0.0615 N   0  0  0  0  0  0  0  0  0  0  0  0
   -1.8214   -0.2554   -0.6958 N   0  0  0  0  0  0  0  0  0  0  0  0
   -3.8391   -1.4798   -0.3092 N   0  0  0  0  0  0  0  0  0  0  0  0
    0.1381    1.2222   -0.4248 C   0  0  1  0  0  0  0  0  0  0  0  0
    1.3585    0.3794   -0.1119 C   0  0  0  0  0  0  0  0  0  0  0  0
    0.0094    1.4987   -1.9246 C   0  0  0  0  0  0  0  0  0  0  0  0
   -1.5702    0.8271    1.3402 C   0  0  0  0  0  0  0  0  0  0  0  0
   -2.8138   -0.0043    1.4046 C   0  0  0  0  0  0  0  0  0  0  0  0
   -2.8303   -0.6279    0.0338 C   0  0  0  0  0  0  0  0  0  0  0  0
    1.4537   -0.8924   -0.6462 C   0  0  0  0  0  0  0  0  0  0  0  0
    2.3473    0.9030    0.7007 C   0  0  0  0  0  0  0  0  0  0  0  0
    2.5768   -1.6676   -0.3581 C   0  0  0  0  0  0  0  0  0  0  0  0
    3.4705    0.1280    0.9889 C   0  0  0  0  0  0  0  0  0  0  0  0
    3.5852   -1.1574    0.4594 C   0  0  0  0  0  0  0  0  0  0  0  0
    0.2332    2.1904    0.0840 H   0  0  0  0  0  0  0  0  0  0  0  0
    0.8998    2.0182   -2.2974 H   0  0  0  0  0  0  0  0  0  0  0  0
   -0.8574    2.1386   -2.1265 H   0  0  0  0  0  0  0  0  0  0  0  0
   -0.1091    0.5887   -2.5230 H   0  0  0  0  0  0  0  0  0  0  0  0
   -3.6948    0.6236    1.5526 H   0  0  0  0  0  0  0  0  0  0  0  0
   -2.7288   -0.7726    2.1758 H   0  0  0  0  0  0  0  0  0  0  0  0
    0.6719   -1.2942   -1.2845 H   0  0  0  0  0  0  0  0  0  0  0  0
    2.2691    1.9021    1.1192 H   0  0  0  0  0  0  0  0  0  0  0  0
    4.2467    0.5413    1.6281 H   0  0  0  0  0  0  0  0  0  0  0  0
   -3.8713   -1.9122   -1.2261 H   0  0  0  0  0  0  0  0  0  0  0  0
   -4.5868   -1.7092    0.3369 H   0  0  0  0  0  0  0  0  0  0  0  0
  1 15  1  0  0  0  0
  2 17  1  0  0  0  0
  3 10  2  0  0  0  0
  4  5  1  0  0  0  0
  4  7  1  0  0  0  0
  4 10  1  0  0  0  0
  5 12  2  0  0  0  0
  6 12  1  0  0  0  0
  6 27  1  0  0  0  0
  6 28  1  0  0  0  0
  7  8  1  0  0  0  0
  7  9  1  0  0  0  0
  7 18  1  1  0  0  0
  8 13  2  0  0  0  0
  8 14  1  0  0  0  0
  9 19  1  0  0  0  0
  9 20  1  0  0  0  0
  9 21  1  0  0  0  0
 10 11  1  0  0  0  0
 11 12  1  0  0  0  0
 11 22  1  0  0  0  0
 11 23  1  0  0  0  0
 13 15  1  0  0  0  0
 13 24  1  0  0  0  0
 14 16  2  0  0  0  0
 14 25  1  0  0  0  0
 15 17  2  0  0  0  0
 16 17  1  0  0  0  0
 16 26  1  0  0  0  0
M  END
