DB13225
 OpenBabel07062211533D

 43 45  0  0  0  0  0  0  0  0999 V2000
    0.1133   -2.3357    1.5125 O   0  0  0  0  0  0  0  0  0  0  0  0
   -0.2862   -0.2359    0.5996 N   0  0  0  0  0  0  0  0  0  0  0  0
    2.5037    0.7305    0.6339 N   0  0  0  0  0  0  0  0  0  0  0  0
   -3.9559   -0.9144    0.3608 N   0  0  0  0  0  0  0  0  0  0  0  0
   -1.6855   -0.3065    1.0434 C   0  0  0  0  0  0  0  0  0  0  0  0
    0.1349    0.9916   -0.0263 C   0  0  0  0  0  0  0  0  0  0  0  0
    1.4587    1.4791    0.0515 C   0  0  0  0  0  0  0  0  0  0  0  0
   -2.5698   -0.8275   -0.0855 C   0  0  0  0  0  0  0  0  0  0  0  0
    2.7958   -0.5722    0.1986 C   0  0  0  0  0  0  0  0  0  0  0  0
    1.8092   -1.5615    0.1814 C   0  0  0  0  0  0  0  0  0  0  0  0
    0.4951   -1.3794    0.8299 C   0  0  0  0  0  0  0  0  0  0  0  0
   -0.8421    1.8031   -0.6513 C   0  0  0  0  0  0  0  0  0  0  0  0
    1.7365    2.7572   -0.4961 C   0  0  0  0  0  0  0  0  0  0  0  0
    3.5736    1.4617    1.3178 C   0  0  0  0  0  0  0  0  0  0  0  0
    4.0744   -0.9154   -0.2901 C   0  0  0  0  0  0  0  0  0  0  0  0
    2.0903   -2.8455   -0.3216 C   0  0  0  0  0  0  0  0  0  0  0  0
   -0.5371    3.0522   -1.1903 C   0  0  0  0  0  0  0  0  0  0  0  0
    0.7557    3.5332   -1.1087 C   0  0  0  0  0  0  0  0  0  0  0  0
    4.3514   -2.1889   -0.7918 C   0  0  0  0  0  0  0  0  0  0  0  0
    3.3549   -3.1537   -0.8141 C   0  0  0  0  0  0  0  0  0  0  0  0
   -4.8070   -1.4479   -0.7039 C   0  0  0  0  0  0  0  0  0  0  0  0
   -4.4418    0.3979    0.7901 C   0  0  0  0  0  0  0  0  0  0  0  0
   -1.7611   -0.9800    1.9066 H   0  0  0  0  0  0  0  0  0  0  0  0
   -1.9636    0.6828    1.4207 H   0  0  0  0  0  0  0  0  0  0  0  0
   -2.4896   -0.2742   -1.0240 H   0  0  0  0  0  0  0  0  0  0  0  0
   -2.2244   -1.8415   -0.3316 H   0  0  0  0  0  0  0  0  0  0  0  0
   -1.8883    1.5409   -0.7135 H   0  0  0  0  0  0  0  0  0  0  0  0
    2.7455    3.1637   -0.4725 H   0  0  0  0  0  0  0  0  0  0  0  0
    4.3034    1.8756    0.6128 H   0  0  0  0  0  0  0  0  0  0  0  0
    4.1054    0.8086    2.0207 H   0  0  0  0  0  0  0  0  0  0  0  0
    3.1646    2.2837    1.9181 H   0  0  0  0  0  0  0  0  0  0  0  0
    4.8754   -0.1799   -0.3159 H   0  0  0  0  0  0  0  0  0  0  0  0
    1.3286   -3.6222   -0.3260 H   0  0  0  0  0  0  0  0  0  0  0  0
   -1.3149    3.6499   -1.6561 H   0  0  0  0  0  0  0  0  0  0  0  0
    1.0071    4.5053   -1.5212 H   0  0  0  0  0  0  0  0  0  0  0  0
    5.3427   -2.4194   -1.1705 H   0  0  0  0  0  0  0  0  0  0  0  0
    3.5628   -4.1461   -1.2021 H   0  0  0  0  0  0  0  0  0  0  0  0
   -5.8359   -1.5731   -0.3485 H   0  0  0  0  0  0  0  0  0  0  0  0
   -4.4610   -2.4409   -1.0126 H   0  0  0  0  0  0  0  0  0  0  0  0
   -4.8231   -0.7979   -1.5863 H   0  0  0  0  0  0  0  0  0  0  0  0
   -4.0103    0.7038    1.7476 H   0  0  0  0  0  0  0  0  0  0  0  0
   -5.5231    0.3606    0.9724 H   0  0  0  0  0  0  0  0  0  0  0  0
   -4.2619    1.1781    0.0419 H   0  0  0  0  0  0  0  0  0  0  0  0
  1 11  2  0  0  0  0
  2  5  1  0  0  0  0
  2  6  1  0  0  0  0
  2 11  1  0  0  0  0
  3  7  1  0  0  0  0
  3  9  1  0  0  0  0
  3 14  1  0  0  0  0
  4  8  1  0  0  0  0
  4 21  1  0  0  0  0
  4 22  1  0  0  0  0
  5  8  1  0  0  0  0
  5 23  1  0  0  0  0
  5 24  1  0  0  0  0
  6  7  2  0  0  0  0
  6 12  1  0  0  0  0
  7 13  1  0  0  0  0
  8 25  1  0  0  0  0
  8 26  1  0  0  0  0
  9 10  2  0  0  0  0
  9 15  1  0  0  0  0
 10 11  1  0  0  0  0
 10 16  1  0  0  0  0
 12 17  2  0  0  0  0
 12 27  1  0  0  0  0
 13 18  2  0  0  0  0
 13 28  1  0  0  0  0
 14 29  1  0  0  0  0
 14 30  1  0  0  0  0
 14 31  1  0  0  0  0
 15 19  2  0  0  0  0
 15 32  1  0  0  0  0
 16 20  2  0  0  0  0
 16 33  1  0  0  0  0
 17 18  1  0  0  0  0
 17 34  1  0  0  0  0
 18 35  1  0  0  0  0
 19 20  1  0  0  0  0
 19 36  1  0  0  0  0
 20 37  1  0  0  0  0
 21 38  1  0  0  0  0
 21 39  1  0  0  0  0
 21 40  1  0  0  0  0
 22 41  1  0  0  0  0
 22 42  1  0  0  0  0
 22 43  1  0  0  0  0
M  END
