DB13501
 OpenBabel07062211533D

 35 37  0  0  0  0  0  0  0  0999 V2000
    3.0240    0.0562    0.2357 O   0  0  0  0  0  0  0  0  0  0  0  0
    5.1496   -2.8415    0.1065 O   0  0  0  0  0  0  0  0  0  0  0  0
    5.5254   -0.7624    0.9567 O   0  0  0  0  0  0  0  0  0  0  0  0
   -0.1301    0.3221   -0.9391 N   0  0  0  0  0  0  0  0  0  0  0  0
    0.9915   -0.3913   -0.7440 N   0  0  0  0  0  0  0  0  0  0  0  0
   -0.0719    1.6019   -0.4569 C   0  0  0  0  0  0  0  0  0  0  0  0
   -1.2488   -0.2966   -1.6119 C   0  0  0  0  0  0  0  0  0  0  0  0
    1.1967    1.7266    0.0985 C   0  0  0  0  0  0  0  0  0  0  0  0
    1.7962    0.4662   -0.1123 C   0  0  0  0  0  0  0  0  0  0  0  0
   -2.1711   -0.9741   -0.6344 C   0  0  0  0  0  0  0  0  0  0  0  0
   -1.0068    2.6393   -0.4611 C   0  0  0  0  0  0  0  0  0  0  0  0
    1.5733    2.9451    0.6876 C   0  0  0  0  0  0  0  0  0  0  0  0
   -0.6169    3.8463    0.1285 C   0  0  0  0  0  0  0  0  0  0  0  0
    0.6504    3.9985    0.6940 C   0  0  0  0  0  0  0  0  0  0  0  0
   -3.2234   -0.2592   -0.0784 C   0  0  0  0  0  0  0  0  0  0  0  0
   -1.9573   -2.3046   -0.3015 C   0  0  0  0  0  0  0  0  0  0  0  0
   -4.0779   -0.8869    0.8279 C   0  0  0  0  0  0  0  0  0  0  0  0
   -2.8119   -2.9326    0.6046 C   0  0  0  0  0  0  0  0  0  0  0  0
    3.4000   -1.2896   -0.0961 C   0  0  0  0  0  0  0  0  0  0  0  0
   -3.8721   -2.2234    1.1694 C   0  0  0  0  0  0  0  0  0  0  0  0
    4.7970   -1.5620    0.3884 C   0  0  0  0  0  0  0  0  0  0  0  0
   -0.8542   -1.0146   -2.3418 H   0  0  0  0  0  0  0  0  0  0  0  0
   -1.7777    0.4675   -2.1931 H   0  0  0  0  0  0  0  0  0  0  0  0
   -1.9873    2.5368   -0.9099 H   0  0  0  0  0  0  0  0  0  0  0  0
    2.5562    3.0756    1.1300 H   0  0  0  0  0  0  0  0  0  0  0  0
   -1.3130    4.6814    0.1436 H   0  0  0  0  0  0  0  0  0  0  0  0
    0.9266    4.9482    1.1449 H   0  0  0  0  0  0  0  0  0  0  0  0
   -3.4071    0.7767   -0.3427 H   0  0  0  0  0  0  0  0  0  0  0  0
   -1.1341   -2.8660   -0.7346 H   0  0  0  0  0  0  0  0  0  0  0  0
   -4.9053   -0.3359    1.2655 H   0  0  0  0  0  0  0  0  0  0  0  0
   -2.6519   -3.9733    0.8707 H   0  0  0  0  0  0  0  0  0  0  0  0
    2.7252   -1.9951    0.4024 H   0  0  0  0  0  0  0  0  0  0  0  0
    3.3861   -1.4199   -1.1842 H   0  0  0  0  0  0  0  0  0  0  0  0
   -4.5379   -2.7125    1.8744 H   0  0  0  0  0  0  0  0  0  0  0  0
    6.0586   -3.0469    0.4130 H   0  0  0  0  0  0  0  0  0  0  0  0
  1  9  1  0  0  0  0
  1 19  1  0  0  0  0
  2 21  1  0  0  0  0
  2 35  1  0  0  0  0
  3 21  2  0  0  0  0
  4  5  1  0  0  0  0
  4  6  2  0  0  0  0
  4  7  1  0  0  0  0
  5  9  1  0  0  0  0
  6  8  1  0  0  0  0
  6 11  1  0  0  0  0
  7 10  1  0  0  0  0
  7 22  1  0  0  0  0
  7 23  1  0  0  0  0
  8  9  2  0  0  0  0
  8 12  1  0  0  0  0
 10 15  2  0  0  0  0
 10 16  1  0  0  0  0
 11 13  2  0  0  0  0
 11 24  1  0  0  0  0
 12 14  2  0  0  0  0
 12 25  1  0  0  0  0
 13 14  1  0  0  0  0
 13 26  1  0  0  0  0
 14 27  1  0  0  0  0
 15 17  1  0  0  0  0
 15 28  1  0  0  0  0
 16 18  2  0  0  0  0
 16 29  1  0  0  0  0
 17 20  2  0  0  0  0
 17 30  1  0  0  0  0
 18 20  1  0  0  0  0
 18 31  1  0  0  0  0
 19 21  1  0  0  0  0
 19 32  1  0  0  0  0
 19 33  1  0  0  0  0
 20 34  1  0  0  0  0
M  END
