DB13246
 OpenBabel07062211533D

 47 51  0  0  1  0  0  0  0  0999 V2000
   -2.3437   -1.9740    0.9162 N   0  0  2  0  0  0  0  0  0  0  0  0
    0.3644   -0.0564   -0.5190 N   0  0  0  0  0  0  0  0  0  0  0  0
   -2.0568    0.3641   -0.1886 C   0  0  1  0  0  0  0  0  0  0  0  0
   -0.9833   -0.6235   -0.6868 C   0  0  2  0  0  0  0  0  0  0  0  0
   -3.4230   -0.2496   -0.5402 C   0  0  0  0  0  0  0  0  0  0  0  0
   -1.9913    0.4605    1.3467 C   0  0  0  0  0  0  0  0  0  0  0  0
   -1.1193   -1.9524    0.0817 C   0  0  0  0  0  0  0  0  0  0  0  0
   -3.5151   -1.6597    0.0682 C   0  0  0  0  0  0  0  0  0  0  0  0
   -2.2168   -0.9317    1.9580 C   0  0  0  0  0  0  0  0  0  0  0  0
    0.4036    1.3601   -0.5925 C   0  0  0  0  0  0  0  0  0  0  0  0
    1.4582   -0.9633   -0.4529 C   0  0  0  0  0  0  0  0  0  0  0  0
    1.1633    2.1252    0.3082 C   0  0  0  0  0  0  0  0  0  0  0  0
    2.7249   -0.6459    0.0951 C   0  0  0  0  0  0  0  0  0  0  0  0
    1.9650    1.4514    1.3843 C   0  0  0  0  0  0  0  0  0  0  0  0
    3.1033    0.6604    0.7607 C   0  0  0  0  0  0  0  0  0  0  0  0
   -0.3360    2.0503   -1.5775 C   0  0  0  0  0  0  0  0  0  0  0  0
    1.3174   -2.2643   -1.0070 C   0  0  0  0  0  0  0  0  0  0  0  0
    1.1722    3.5285    0.2174 C   0  0  0  0  0  0  0  0  0  0  0  0
    3.7730   -1.5984    0.0391 C   0  0  0  0  0  0  0  0  0  0  0  0
   -0.3212    3.4438   -1.6631 C   0  0  0  0  0  0  0  0  0  0  0  0
    2.3576   -3.1964   -1.0341 C   0  0  0  0  0  0  0  0  0  0  0  0
    0.4334    4.1840   -0.7635 C   0  0  0  0  0  0  0  0  0  0  0  0
    3.5925   -2.8607   -0.5133 C   0  0  0  0  0  0  0  0  0  0  0  0
   -2.1267    1.3685   -0.5861 H   0  0  0  0  0  0  0  0  0  0  0  0
   -1.1521   -0.8144   -1.7568 H   0  0  0  0  0  0  0  0  0  0  0  0
   -1.2289   -2.7997   -0.6052 H   0  0  0  0  0  0  0  0  0  0  0  0
   -0.3086   -2.1833    0.7802 H   0  0  0  0  0  0  0  0  0  0  0  0
   -3.5513   -0.3005   -1.6281 H   0  0  0  0  0  0  0  0  0  0  0  0
   -4.2327    0.3774   -0.1467 H   0  0  0  0  0  0  0  0  0  0  0  0
   -2.7740    1.1409    1.7059 H   0  0  0  0  0  0  0  0  0  0  0  0
   -1.0427    0.8717    1.6979 H   0  0  0  0  0  0  0  0  0  0  0  0
   -4.4347   -1.7498    0.6598 H   0  0  0  0  0  0  0  0  0  0  0  0
   -3.6059   -2.4074   -0.7298 H   0  0  0  0  0  0  0  0  0  0  0  0
   -1.3891   -1.1803    2.6340 H   0  0  0  0  0  0  0  0  0  0  0  0
   -3.1160   -0.9254    2.5869 H   0  0  0  0  0  0  0  0  0  0  0  0
    2.3883    2.2073    2.0578 H   0  0  0  0  0  0  0  0  0  0  0  0
    1.3208    0.8178    2.0052 H   0  0  0  0  0  0  0  0  0  0  0  0
    3.8056    0.4357    1.5753 H   0  0  0  0  0  0  0  0  0  0  0  0
    3.6494    1.2733    0.0313 H   0  0  0  0  0  0  0  0  0  0  0  0
   -0.8819    1.5087   -2.3494 H   0  0  0  0  0  0  0  0  0  0  0  0
    0.4575   -2.5438   -1.6085 H   0  0  0  0  0  0  0  0  0  0  0  0
    1.7598    4.1207    0.9148 H   0  0  0  0  0  0  0  0  0  0  0  0
    4.7534   -1.3510    0.4433 H   0  0  0  0  0  0  0  0  0  0  0  0
   -0.8868    3.9456   -2.4425 H   0  0  0  0  0  0  0  0  0  0  0  0
    2.2090   -4.1629   -1.5065 H   0  0  0  0  0  0  0  0  0  0  0  0
    0.4513    5.2676   -0.8268 H   0  0  0  0  0  0  0  0  0  0  0  0
    4.4143   -3.5689   -0.5433 H   0  0  0  0  0  0  0  0  0  0  0  0
  1  7  1  6  0  0  0
  1  8  1  0  0  0  0
  1  9  1  0  0  0  0
  2  4  1  0  0  0  0
  2 10  1  0  0  0  0
  2 11  1  0  0  0  0
  3  5  1  0  0  0  0
  3  6  1  0  0  0  0
  3 24  1  6  0  0  0
  4  3  1  1  0  0  0
  4  7  1  0  0  0  0
  4 25  1  0  0  0  0
  5  8  1  0  0  0  0
  5 28  1  0  0  0  0
  5 29  1  0  0  0  0
  6  9  1  0  0  0  0
  6 30  1  0  0  0  0
  6 31  1  0  0  0  0
  7 26  1  0  0  0  0
  7 27  1  0  0  0  0
  8 32  1  0  0  0  0
  8 33  1  0  0  0  0
  9 34  1  0  0  0  0
  9 35  1  0  0  0  0
 10 12  2  0  0  0  0
 10 16  1  0  0  0  0
 11 13  2  0  0  0  0
 11 17  1  0  0  0  0
 12 14  1  0  0  0  0
 12 18  1  0  0  0  0
 13 15  1  0  0  0  0
 13 19  1  0  0  0  0
 14 15  1  0  0  0  0
 14 36  1  0  0  0  0
 14 37  1  0  0  0  0
 15 38  1  0  0  0  0
 15 39  1  0  0  0  0
 16 20  2  0  0  0  0
 16 40  1  0  0  0  0
 17 21  2  0  0  0  0
 17 41  1  0  0  0  0
 18 22  2  0  0  0  0
 18 42  1  0  0  0  0
 19 23  2  0  0  0  0
 19 43  1  0  0  0  0
 20 22  1  0  0  0  0
 20 44  1  0  0  0  0
 21 23  1  0  0  0  0
 21 45  1  0  0  0  0
 22 46  1  0  0  0  0
 23 47  1  0  0  0  0
M  END
