DB13346
 OpenBabel07062211533D

 33 33  0  0  0  0  0  0  0  0999 V2000
   -1.3906    0.6808   -0.8804 O   0  0  0  0  0  0  0  0  0  0  0  0
    5.1063    1.0318   -1.0928 O   0  0  0  0  0  0  0  0  0  0  0  0
    6.6597   -1.1777   -0.9926 O   0  0  0  0  0  0  0  0  0  0  0  0
    5.6924   -0.9230   -0.0115 N   0  0  0  0  0  0  0  0  0  0  0  0
   -3.6913    0.2792   -0.3523 C   0  0  0  0  0  0  0  0  0  0  0  0
   -4.7065   -0.7248    0.1860 C   0  0  0  0  0  0  0  0  0  0  0  0
   -2.2863   -0.3051   -0.3859 C   0  0  0  0  0  0  0  0  0  0  0  0
    2.5336    0.4909    0.4590 C   0  0  0  0  0  0  0  0  0  0  0  0
   -0.0949    0.6176   -0.4374 C   0  0  0  0  0  0  0  0  0  0  0  0
   -6.1008   -0.1231    0.2583 C   0  0  0  0  0  0  0  0  0  0  0  0
    3.9430    0.4227    0.9407 C   0  0  0  0  0  0  0  0  0  0  0  0
    1.9712    1.7212    0.1190 C   0  0  0  0  0  0  0  0  0  0  0  0
    1.7771   -0.6759    0.3493 C   0  0  0  0  0  0  0  0  0  0  0  0
    0.6524    1.7847   -0.3308 C   0  0  0  0  0  0  0  0  0  0  0  0
    0.4582   -0.6124   -0.1006 C   0  0  0  0  0  0  0  0  0  0  0  0
    4.9648    0.2324   -0.1708 C   0  0  0  0  0  0  0  0  0  0  0  0
   -3.9757    0.6042   -1.3609 H   0  0  0  0  0  0  0  0  0  0  0  0
   -3.6911    1.1863    0.2654 H   0  0  0  0  0  0  0  0  0  0  0  0
   -4.4089   -1.0570    1.1874 H   0  0  0  0  0  0  0  0  0  0  0  0
   -4.7291   -1.6125   -0.4570 H   0  0  0  0  0  0  0  0  0  0  0  0
   -2.0270   -0.6118    0.6361 H   0  0  0  0  0  0  0  0  0  0  0  0
   -2.2591   -1.1793   -1.0466 H   0  0  0  0  0  0  0  0  0  0  0  0
   -6.1187    0.7471    0.9223 H   0  0  0  0  0  0  0  0  0  0  0  0
   -6.4434    0.1930   -0.7321 H   0  0  0  0  0  0  0  0  0  0  0  0
   -6.8120   -0.8597    0.6448 H   0  0  0  0  0  0  0  0  0  0  0  0
    4.0361   -0.3716    1.6924 H   0  0  0  0  0  0  0  0  0  0  0  0
    4.2096    1.3473    1.4693 H   0  0  0  0  0  0  0  0  0  0  0  0
    2.5503    2.6375    0.1986 H   0  0  0  0  0  0  0  0  0  0  0  0
    2.2070   -1.6412    0.6037 H   0  0  0  0  0  0  0  0  0  0  0  0
    0.2181    2.7447   -0.5949 H   0  0  0  0  0  0  0  0  0  0  0  0
   -0.0866   -1.5462   -0.1992 H   0  0  0  0  0  0  0  0  0  0  0  0
    5.6860   -1.5357    0.7957 H   0  0  0  0  0  0  0  0  0  0  0  0
    6.1562   -1.7645   -1.5820 H   0  0  0  0  0  0  0  0  0  0  0  0
  1  7  1  0  0  0  0
  1  9  1  0  0  0  0
  2 16  2  0  0  0  0
  3  4  1  0  0  0  0
  3 33  1  0  0  0  0
  4 16  1  0  0  0  0
  4 32  1  0  0  0  0
  5  6  1  0  0  0  0
  5  7  1  0  0  0  0
  5 17  1  0  0  0  0
  5 18  1  0  0  0  0
  6 10  1  0  0  0  0
  6 19  1  0  0  0  0
  6 20  1  0  0  0  0
  7 21  1  0  0  0  0
  7 22  1  0  0  0  0
  8 11  1  0  0  0  0
  8 12  2  0  0  0  0
  8 13  1  0  0  0  0
  9 14  2  0  0  0  0
  9 15  1  0  0  0  0
 10 23  1  0  0  0  0
 10 24  1  0  0  0  0
 10 25  1  0  0  0  0
 11 16  1  0  0  0  0
 11 26  1  0  0  0  0
 11 27  1  0  0  0  0
 12 14  1  0  0  0  0
 12 28  1  0  0  0  0
 13 15  2  0  0  0  0
 13 29  1  0  0  0  0
 14 30  1  0  0  0  0
 15 31  1  0  0  0  0
M  END
