DB13967
 OpenBabel07062211533D

 71 73  0  0  0  0  0  0  0  0999 V2000
   -0.2022    2.2448    2.5150 S   0  0  0  0  0  0  0  0  0  0  0  0
   -0.5459    6.6533   -0.5979 S   0  0  0  0  0  0  0  0  0  0  0  0
   -0.4011    4.6737   -2.8630 O   0  0  0  0  0  0  0  0  0  0  0  0
    1.3843    2.1989    2.9001 O   0  0  0  0  0  0  0  0  0  0  0  0
   -0.6823    0.8786    2.3986 O   0  0  0  0  0  0  0  0  0  0  0  0
   -0.8369    3.1847    3.4242 O   0  0  0  0  0  0  0  0  0  0  0  0
   -2.0552    6.9278   -1.1609 O   0  0  0  0  0  0  0  0  0  0  0  0
    0.4017    7.0762   -1.6159 O   0  0  0  0  0  0  0  0  0  0  0  0
   -0.4868    7.2011    0.7483 O   0  0  0  0  0  0  0  0  0  0  0  0
   -4.6792   -2.2522   -0.0188 N   0  0  0  0  0  0  0  0  0  0  0  0
    4.8569   -2.0485   -0.0088 N   0  0  0  0  0  0  0  0  0  0  0  0
   -0.0878    0.6907   -0.1616 C   0  0  0  0  0  0  0  0  0  0  0  0
   -0.2029    2.1706   -0.2401 C   0  0  0  0  0  0  0  0  0  0  0  0
   -1.2183   -0.0339   -0.1260 C   0  0  0  0  0  0  0  0  0  0  0  0
    1.2123   -0.0293   -0.1214 C   0  0  0  0  0  0  0  0  0  0  0  0
   -0.2587    2.9371    0.9058 C   0  0  0  0  0  0  0  0  0  0  0  0
   -3.5984   -1.5597   -0.0528 C   0  0  0  0  0  0  0  0  0  0  0  0
    3.6237   -1.3648   -0.0469 C   0  0  0  0  0  0  0  0  0  0  0  0
   -0.2495    2.7319   -1.5014 C   0  0  0  0  0  0  0  0  0  0  0  0
   -2.5135    0.6284   -0.1633 C   0  0  0  0  0  0  0  0  0  0  0  0
   -1.1549   -1.4857   -0.0503 C   0  0  0  0  0  0  0  0  0  0  0  0
    1.7960   -0.4151   -1.3097 C   0  0  0  0  0  0  0  0  0  0  0  0
    1.7920   -0.2876    1.1029 C   0  0  0  0  0  0  0  0  0  0  0  0
   -0.3657    4.3228    0.7873 C   0  0  0  0  0  0  0  0  0  0  0  0
   -3.6532   -0.0758   -0.1296 C   0  0  0  0  0  0  0  0  0  0  0  0
   -2.2705   -2.2273   -0.0149 C   0  0  0  0  0  0  0  0  0  0  0  0
    3.0157   -1.0908   -1.2721 C   0  0  0  0  0  0  0  0  0  0  0  0
    3.0118   -0.9631    1.1405 C   0  0  0  0  0  0  0  0  0  0  0  0
   -0.4144    4.9130   -0.4754 C   0  0  0  0  0  0  0  0  0  0  0  0
   -6.0167   -1.6066   -0.0545 C   0  0  0  0  0  0  0  0  0  0  0  0
   -4.6489   -3.7354    0.0581 C   0  0  0  0  0  0  0  0  0  0  0  0
    5.4964   -2.3383    1.2590 C   0  0  0  0  0  0  0  0  0  0  0  0
    5.4936   -2.4821   -1.2365 C   0  0  0  0  0  0  0  0  0  0  0  0
   -0.3563    4.1176   -1.6198 C   0  0  0  0  0  0  0  0  0  0  0  0
   -6.4795   -1.3383    1.3614 C   0  0  0  0  0  0  0  0  0  0  0  0
   -4.6610   -4.3084   -1.3429 C   0  0  0  0  0  0  0  0  0  0  0  0
    6.2393   -1.1152    1.7611 C   0  0  0  0  0  0  0  0  0  0  0  0
    6.3973   -1.3878   -1.7709 C   0  0  0  0  0  0  0  0  0  0  0  0
   -0.2044    2.1123   -2.3936 H   0  0  0  0  0  0  0  0  0  0  0  0
   -2.6151    1.7064   -0.2046 H   0  0  0  0  0  0  0  0  0  0  0  0
   -0.2164   -2.0268   -0.0323 H   0  0  0  0  0  0  0  0  0  0  0  0
    1.3329   -0.2035   -2.2694 H   0  0  0  0  0  0  0  0  0  0  0  0
    1.3443   -0.0633    2.0549 H   0  0  0  0  0  0  0  0  0  0  0  0
   -0.4024    4.9387    1.6806 H   0  0  0  0  0  0  0  0  0  0  0  0
   -4.5800    0.4811   -0.1286 H   0  0  0  0  0  0  0  0  0  0  0  0
   -2.1511   -3.3017    0.0100 H   0  0  0  0  0  0  0  0  0  0  0  0
    3.4449   -1.3562   -2.2313 H   0  0  0  0  0  0  0  0  0  0  0  0
    3.4241   -1.1578    2.1243 H   0  0  0  0  0  0  0  0  0  0  0  0
   -6.7073   -2.3147   -0.5285 H   0  0  0  0  0  0  0  0  0  0  0  0
   -6.0292   -0.7263   -0.7009 H   0  0  0  0  0  0  0  0  0  0  0  0
   -5.5585   -4.0528    0.5823 H   0  0  0  0  0  0  0  0  0  0  0  0
   -3.8261   -4.0964    0.6790 H   0  0  0  0  0  0  0  0  0  0  0  0
    4.7941   -2.7245    2.0064 H   0  0  0  0  0  0  0  0  0  0  0  0
    6.2288   -3.1466    1.1363 H   0  0  0  0  0  0  0  0  0  0  0  0
    6.1201   -3.3613   -1.0359 H   0  0  0  0  0  0  0  0  0  0  0  0
    4.7895   -2.8390   -1.9948 H   0  0  0  0  0  0  0  0  0  0  0  0
   -6.5284   -2.2571    1.9561 H   0  0  0  0  0  0  0  0  0  0  0  0
   -5.8158   -0.6406    1.8830 H   0  0  0  0  0  0  0  0  0  0  0  0
   -7.4821   -0.8979    1.3496 H   0  0  0  0  0  0  0  0  0  0  0  0
   -5.5420   -3.9855   -1.9085 H   0  0  0  0  0  0  0  0  0  0  0  0
   -3.7741   -4.0125   -1.9131 H   0  0  0  0  0  0  0  0  0  0  0  0
   -4.6785   -5.4024   -1.2990 H   0  0  0  0  0  0  0  0  0  0  0  0
    6.6831   -1.3278    2.7395 H   0  0  0  0  0  0  0  0  0  0  0  0
    5.5950   -0.2388    1.8739 H   0  0  0  0  0  0  0  0  0  0  0  0
    7.0560   -0.8362    1.0898 H   0  0  0  0  0  0  0  0  0  0  0  0
    6.8232   -1.6929   -2.7325 H   0  0  0  0  0  0  0  0  0  0  0  0
    7.2335   -1.1893   -1.0951 H   0  0  0  0  0  0  0  0  0  0  0  0
    5.8586   -0.4477   -1.9259 H   0  0  0  0  0  0  0  0  0  0  0  0
   -0.3488    3.9679   -3.5300 H   0  0  0  0  0  0  0  0  0  0  0  0
    1.8382    3.0738    2.9306 H   0  0  0  0  0  0  0  0  0  0  0  0
   -2.7872    6.6141   -0.5793 H   0  0  0  0  0  0  0  0  0  0  0  0
  1  4  1  0  0  0  0
  1  5  2  0  0  0  0
  1  6  2  0  0  0  0
  1 16  1  0  0  0  0
  2  7  1  0  0  0  0
  2  8  2  0  0  0  0
  2  9  2  0  0  0  0
  2 29  1  0  0  0  0
  3 34  1  0  0  0  0
  3 69  1  0  0  0  0
  4 70  1  0  0  0  0
  7 71  1  0  0  0  0
 10 17  2  0  0  0  0
 10 30  1  0  0  0  0
 10 31  1  0  0  0  0
 11 18  1  0  0  0  0
 11 32  1  0  0  0  0
 11 33  1  0  0  0  0
 12 13  1  0  0  0  0
 12 14  2  0  0  0  0
 12 15  1  0  0  0  0
 13 16  2  0  0  0  0
 13 19  1  0  0  0  0
 14 20  1  0  0  0  0
 14 21  1  0  0  0  0
 15 22  2  0  0  0  0
 15 23  1  0  0  0  0
 16 24  1  0  0  0  0
 17 25  1  0  0  0  0
 17 26  1  0  0  0  0
 18 27  2  0  0  0  0
 18 28  1  0  0  0  0
 19 34  2  0  0  0  0
 19 39  1  0  0  0  0
 20 25  2  0  0  0  0
 20 40  1  0  0  0  0
 21 26  2  0  0  0  0
 21 41  1  0  0  0  0
 22 27  1  0  0  0  0
 22 42  1  0  0  0  0
 23 28  2  0  0  0  0
 23 43  1  0  0  0  0
 24 29  2  0  0  0  0
 24 44  1  0  0  0  0
 25 45  1  0  0  0  0
 26 46  1  0  0  0  0
 27 47  1  0  0  0  0
 28 48  1  0  0  0  0
 29 34  1  0  0  0  0
 30 35  1  0  0  0  0
 30 49  1  0  0  0  0
 30 50  1  0  0  0  0
 31 36  1  0  0  0  0
 31 51  1  0  0  0  0
 31 52  1  0  0  0  0
 32 37  1  0  0  0  0
 32 53  1  0  0  0  0
 32 54  1  0  0  0  0
 33 38  1  0  0  0  0
 33 55  1  0  0  0  0
 33 56  1  0  0  0  0
 35 57  1  0  0  0  0
 35 58  1  0  0  0  0
 35 59  1  0  0  0  0
 36 60  1  0  0  0  0
 36 61  1  0  0  0  0
 36 62  1  0  0  0  0
 37 63  1  0  0  0  0
 37 64  1  0  0  0  0
 37 65  1  0  0  0  0
 38 66  1  0  0  0  0
 38 67  1  0  0  0  0
 38 68  1  0  0  0  0
M  END
