DB13680
 OpenBabel07062211533D

 25 26  0  0  0  0  0  0  0  0999 V2000
   -0.2976    2.5619   -0.2208 O   0  0  0  0  0  0  0  0  0  0  0  0
    4.4273    1.7961    0.7267 O   0  0  0  0  0  0  0  0  0  0  0  0
    1.9590    1.0989   -0.2697 N   0  0  0  0  0  0  0  0  0  0  0  0
    3.0151    0.2564   -0.2849 N   0  0  0  0  0  0  0  0  0  0  0  0
    5.2025   -0.2870    0.1490 N   0  0  0  0  0  0  0  0  0  0  0  0
   -1.7316    0.6843   -0.0535 C   0  0  0  0  0  0  0  0  0  0  0  0
   -1.7812   -0.7136    0.0170 C   0  0  0  0  0  0  0  0  0  0  0  0
   -0.4192    1.3490   -0.1553 C   0  0  0  0  0  0  0  0  0  0  0  0
   -0.5563   -1.5153   -0.0089 C   0  0  0  0  0  0  0  0  0  0  0  0
    0.8206    0.4962   -0.1798 C   0  0  0  0  0  0  0  0  0  0  0  0
   -2.9031    1.4470   -0.0290 C   0  0  0  0  0  0  0  0  0  0  0  0
   -3.0295   -1.3411    0.1136 C   0  0  0  0  0  0  0  0  0  0  0  0
    0.6610   -0.9704   -0.1000 C   0  0  0  0  0  0  0  0  0  0  0  0
   -4.1384    0.8084    0.0673 C   0  0  0  0  0  0  0  0  0  0  0  0
   -4.2019   -0.5824    0.1385 C   0  0  0  0  0  0  0  0  0  0  0  0
    4.2240    0.6859    0.2372 C   0  0  0  0  0  0  0  0  0  0  0  0
   -0.6562   -2.5943    0.0615 H   0  0  0  0  0  0  0  0  0  0  0  0
   -2.8723    2.5315   -0.0835 H   0  0  0  0  0  0  0  0  0  0  0  0
   -3.1048   -2.4246    0.1703 H   0  0  0  0  0  0  0  0  0  0  0  0
    1.5044   -1.6478   -0.0797 H   0  0  0  0  0  0  0  0  0  0  0  0
   -5.0525    1.3947    0.0870 H   0  0  0  0  0  0  0  0  0  0  0  0
   -5.1658   -1.0779    0.2134 H   0  0  0  0  0  0  0  0  0  0  0  0
    2.9410   -0.6395   -0.7501 H   0  0  0  0  0  0  0  0  0  0  0  0
    6.1430   -0.1195    0.4907 H   0  0  0  0  0  0  0  0  0  0  0  0
    5.0125   -1.1970   -0.2570 H   0  0  0  0  0  0  0  0  0  0  0  0
  1  8  2  0  0  0  0
  2 16  2  0  0  0  0
  3  4  1  0  0  0  0
  3 10  2  0  0  0  0
  4 16  1  0  0  0  0
  4 23  1  0  0  0  0
  5 16  1  0  0  0  0
  5 24  1  0  0  0  0
  5 25  1  0  0  0  0
  6  7  2  0  0  0  0
  6  8  1  0  0  0  0
  6 11  1  0  0  0  0
  7  9  1  0  0  0  0
  7 12  1  0  0  0  0
  8 10  1  0  0  0  0
  9 13  2  0  0  0  0
  9 17  1  0  0  0  0
 10 13  1  0  0  0  0
 11 14  2  0  0  0  0
 11 18  1  0  0  0  0
 12 15  2  0  0  0  0
 12 19  1  0  0  0  0
 13 20  1  0  0  0  0
 14 15  1  0  0  0  0
 14 21  1  0  0  0  0
 15 22  1  0  0  0  0
M  END
