DB13345
 OpenBabel07062211533D

 86 93  0  0  1  0  0  0  0  0999 V2000
   -1.7301    2.2416    0.0010 O   0  0  0  0  0  0  0  0  0  0  0  0
   -2.4353    0.9720    1.8501 O   0  0  0  0  0  0  0  0  0  0  0  0
   -1.8796   -0.5920   -2.0795 O   0  0  0  0  0  0  0  0  0  0  0  0
   -6.4576   -0.3937    0.7350 O   0  0  0  0  0  0  0  0  0  0  0  0
    0.7314   -0.6386   -2.0004 O   0  0  0  0  0  0  0  0  0  0  0  0
   -3.0514    0.4144   -0.3154 N   0  0  0  0  0  0  0  0  0  0  0  0
   -5.2318    1.5411    0.9419 N   0  0  0  0  0  0  0  0  0  0  0  0
    3.5432   -2.4993    0.5280 N   0  0  0  0  0  0  0  0  0  0  0  0
    0.1026    0.7947   -0.2773 N   0  0  0  0  0  0  0  0  0  0  0  0
    9.1057   -0.1942    0.6459 N   0  0  0  0  0  0  0  0  0  0  0  0
   -4.0680    2.3544    0.6202 C   0  0  2  0  0  0  0  0  0  0  0  0
   -2.8093    1.5064    0.5877 C   0  0  2  0  0  0  0  0  0  0  0  0
   -1.0423    1.3812   -0.9173 C   0  0  1  0  0  0  0  0  0  0  0  0
   -4.1407    3.5078    1.6201 C   0  0  0  0  0  0  0  0  0  0  0  0
   -4.2456   -0.4196   -0.2213 C   0  0  2  0  0  0  0  0  0  0  0  0
    4.4462   -0.1504    0.5770 C   0  0  2  0  0  0  0  0  0  0  0  0
    4.7484   -1.6789    0.2501 C   0  0  1  0  0  0  0  0  0  0  0  0
   -6.1928    2.2855    1.7408 C   0  0  0  0  0  0  0  0  0  0  0  0
   -2.0224    0.2725   -1.2287 C   0  0  0  0  0  0  0  0  0  0  0  0
   -5.6493    3.7095    1.7631 C   0  0  0  0  0  0  0  0  0  0  0  0
    2.0373   -0.5915   -0.0010 C   0  0  2  0  0  0  0  0  0  0  0  0
    3.2315    0.3312   -0.2263 C   0  0  0  0  0  0  0  0  0  0  0  0
   -5.4183    0.2374    0.5276 C   0  0  0  0  0  0  0  0  0  0  0  0
   -0.6523    2.1690   -2.1539 C   0  0  0  0  0  0  0  0  0  0  0  0
    2.4005   -2.0487   -0.2853 C   0  0  0  0  0  0  0  0  0  0  0  0
    6.0237   -2.2104    1.0112 C   0  0  0  0  0  0  0  0  0  0  0  0
    5.6820    0.7093    0.3694 C   0  0  0  0  0  0  0  0  0  0  0  0
   -3.9113   -1.7617    0.4289 C   0  0  0  0  0  0  0  0  0  0  0  0
    0.8946   -0.1693   -0.8770 C   0  0  0  0  0  0  0  0  0  0  0  0
    6.9226    0.0818    0.5378 C   0  0  0  0  0  0  0  0  0  0  0  0
    7.1691   -1.2726    0.8370 C   0  0  0  0  0  0  0  0  0  0  0  0
    0.3656    3.2583   -1.8087 C   0  0  0  0  0  0  0  0  0  0  0  0
   -1.8843    2.7869   -2.8184 C   0  0  0  0  0  0  0  0  0  0  0  0
    3.7602   -3.9297    0.2909 C   0  0  0  0  0  0  0  0  0  0  0  0
    8.1269    0.7495    0.4205 C   0  0  0  0  0  0  0  0  0  0  0  0
    5.7201    2.0839    0.1013 C   0  0  0  0  0  0  0  0  0  0  0  0
   -4.9046   -2.8238    0.0472 C   0  0  0  0  0  0  0  0  0  0  0  0
    8.5344   -1.4238    0.9024 C   0  0  0  0  0  0  0  0  0  0  0  0
    8.1761    2.1122    0.1313 C   0  0  0  0  0  0  0  0  0  0  0  0
    6.9423    2.7645   -0.0217 C   0  0  0  0  0  0  0  0  0  0  0  0
   -6.0378   -3.0145    0.8276 C   0  0  0  0  0  0  0  0  0  0  0  0
   -4.6778   -3.6011   -1.0812 C   0  0  0  0  0  0  0  0  0  0  0  0
   -6.9597   -3.9997    0.4735 C   0  0  0  0  0  0  0  0  0  0  0  0
   -5.5998   -4.5861   -1.4353 C   0  0  0  0  0  0  0  0  0  0  0  0
   -6.7407   -4.7853   -0.6578 C   0  0  0  0  0  0  0  0  0  0  0  0
   -4.2551    2.7635   -0.3839 H   0  0  0  0  0  0  0  0  0  0  0  0
   -3.6286    4.4051    1.2611 H   0  0  0  0  0  0  0  0  0  0  0  0
   -3.7251    3.2428    2.5970 H   0  0  0  0  0  0  0  0  0  0  0  0
   -4.5769   -0.5769   -1.2563 H   0  0  0  0  0  0  0  0  0  0  0  0
    4.1988   -0.0783    1.6467 H   0  0  0  0  0  0  0  0  0  0  0  0
    4.9782   -1.7444   -0.8259 H   0  0  0  0  0  0  0  0  0  0  0  0
   -7.1942    2.2134    1.3065 H   0  0  0  0  0  0  0  0  0  0  0  0
   -6.2081    1.8425    2.7423 H   0  0  0  0  0  0  0  0  0  0  0  0
   -6.0309    4.2703    0.9012 H   0  0  0  0  0  0  0  0  0  0  0  0
   -5.9244    4.2508    2.6724 H   0  0  0  0  0  0  0  0  0  0  0  0
    1.7243   -0.5185    1.0502 H   0  0  0  0  0  0  0  0  0  0  0  0
    3.4792    0.3780   -1.2958 H   0  0  0  0  0  0  0  0  0  0  0  0
    2.9551    1.3508    0.0686 H   0  0  0  0  0  0  0  0  0  0  0  0
   -0.1889    1.5124   -2.9005 H   0  0  0  0  0  0  0  0  0  0  0  0
    1.5212   -2.6674   -0.0603 H   0  0  0  0  0  0  0  0  0  0  0  0
    2.6204   -2.1936   -1.3524 H   0  0  0  0  0  0  0  0  0  0  0  0
    0.3566    1.1522    0.6387 H   0  0  0  0  0  0  0  0  0  0  0  0
    6.3171   -3.1938    0.6273 H   0  0  0  0  0  0  0  0  0  0  0  0
    5.8038   -2.3126    2.0811 H   0  0  0  0  0  0  0  0  0  0  0  0
   -2.9091   -2.1016    0.1350 H   0  0  0  0  0  0  0  0  0  0  0  0
   -3.8689   -1.6655    1.5224 H   0  0  0  0  0  0  0  0  0  0  0  0
   -2.4837    1.6765    2.5141 H   0  0  0  0  0  0  0  0  0  0  0  0
    1.2983    2.8369   -1.4214 H   0  0  0  0  0  0  0  0  0  0  0  0
    0.6233    3.8366   -2.7031 H   0  0  0  0  0  0  0  0  0  0  0  0
   -0.0271    3.9605   -1.0655 H   0  0  0  0  0  0  0  0  0  0  0  0
   -2.6078    2.0263   -3.1276 H   0  0  0  0  0  0  0  0  0  0  0  0
   -1.5925    3.3359   -3.7211 H   0  0  0  0  0  0  0  0  0  0  0  0
   -2.3935    3.4966   -2.1579 H   0  0  0  0  0  0  0  0  0  0  0  0
    4.4658   -4.3501    1.0140 H   0  0  0  0  0  0  0  0  0  0  0  0
    4.1276   -4.1285   -0.7222 H   0  0  0  0  0  0  0  0  0  0  0  0
    2.8300   -4.4924    0.4329 H   0  0  0  0  0  0  0  0  0  0  0  0
    4.8010    2.6520   -0.0125 H   0  0  0  0  0  0  0  0  0  0  0  0
    9.1573   -2.2838    1.1035 H   0  0  0  0  0  0  0  0  0  0  0  0
   10.0997   -0.0131    0.6296 H   0  0  0  0  0  0  0  0  0  0  0  0
    9.1142    2.6469    0.0379 H   0  0  0  0  0  0  0  0  0  0  0  0
    6.9334    3.8311   -0.2365 H   0  0  0  0  0  0  0  0  0  0  0  0
   -6.1938   -2.4687    1.7532 H   0  0  0  0  0  0  0  0  0  0  0  0
   -3.7936   -3.4525   -1.6949 H   0  0  0  0  0  0  0  0  0  0  0  0
   -7.8393   -4.1667    1.0884 H   0  0  0  0  0  0  0  0  0  0  0  0
   -5.4292   -5.1982   -2.3161 H   0  0  0  0  0  0  0  0  0  0  0  0
   -7.4565   -5.5550   -0.9314 H   0  0  0  0  0  0  0  0  0  0  0  0
  1 12  1  0  0  0  0
  1 13  1  0  0  0  0
  2 67  1  0  0  0  0
  3 19  2  0  0  0  0
  4 23  2  0  0  0  0
  5 29  2  0  0  0  0
  6 12  1  0  0  0  0
  6 15  1  0  0  0  0
  6 19  1  0  0  0  0
  7 11  1  0  0  0  0
  7 18  1  0  0  0  0
  7 23  1  0  0  0  0
  8 17  1  0  0  0  0
  8 25  1  0  0  0  0
  8 34  1  0  0  0  0
  9 29  1  0  0  0  0
  9 62  1  0  0  0  0
 10 35  1  0  0  0  0
 10 38  2  0  0  0  0
 10 79  1  0  0  0  0
 11 12  1  1  0  0  0
 11 14  1  0  0  0  0
 11 46  1  0  0  0  0
 12  2  1  1  0  0  0
 13  9  1  1  0  0  0
 13 19  1  0  0  0  0
 13 24  1  0  0  0  0
 14 20  1  0  0  0  0
 14 47  1  0  0  0  0
 14 48  1  0  0  0  0
 15 23  1  0  0  0  0
 15 28  1  0  0  0  0
 15 49  1  6  0  0  0
 16 17  1  6  0  0  0
 16 22  1  0  0  0  0
 16 27  1  0  0  0  0
 16 50  1  0  0  0  0
 17 26  1  0  0  0  0
 17 51  1  6  0  0  0
 18 20  1  0  0  0  0
 18 52  1  0  0  0  0
 18 53  1  0  0  0  0
 20 54  1  0  0  0  0
 20 55  1  0  0  0  0
 21 22  1  0  0  0  0
 21 25  1  0  0  0  0
 21 29  1  0  0  0  0
 21 56  1  1  0  0  0
 22 57  1  0  0  0  0
 22 58  1  0  0  0  0
 24 32  1  0  0  0  0
 24 33  1  0  0  0  0
 24 59  1  0  0  0  0
 25 60  1  0  0  0  0
 25 61  1  0  0  0  0
 26 31  1  0  0  0  0
 26 63  1  0  0  0  0
 26 64  1  0  0  0  0
 27 30  1  0  0  0  0
 27 36  2  0  0  0  0
 28 37  1  0  0  0  0
 28 65  1  0  0  0  0
 28 66  1  0  0  0  0
 30 31  2  0  0  0  0
 30 35  2  0  0  0  0
 31 38  1  0  0  0  0
 32 68  1  0  0  0  0
 32 69  1  0  0  0  0
 32 70  1  0  0  0  0
 33 71  1  0  0  0  0
 33 72  1  0  0  0  0
 33 73  1  0  0  0  0
 34 74  1  0  0  0  0
 34 75  1  0  0  0  0
 34 76  1  0  0  0  0
 35 39  1  0  0  0  0
 36 40  1  0  0  0  0
 36 77  1  0  0  0  0
 37 41  2  0  0  0  0
 37 42  1  0  0  0  0
 38 78  1  0  0  0  0
 39 40  2  0  0  0  0
 39 80  1  0  0  0  0
 40 81  1  0  0  0  0
 41 43  1  0  0  0  0
 41 82  1  0  0  0  0
 42 44  2  0  0  0  0
 42 83  1  0  0  0  0
 43 45  2  0  0  0  0
 43 84  1  0  0  0  0
 44 45  1  0  0  0  0
 44 85  1  0  0  0  0
 45 86  1  0  0  0  0
M  END
