DB13284
 OpenBabel07062211533D

 30 31  0  0  0  0  0  0  0  0999 V2000
    2.1185   -1.7712   -0.1674 S   0  0  0  0  0  0  0  0  0  0  0  0
   -3.2077   -1.0398   -0.5832 S   0  0  0  0  0  0  0  0  0  0  0  0
    1.8508   -2.7623    0.8566 O   0  0  0  0  0  0  0  0  0  0  0  0
    2.3313   -2.1462   -1.5517 O   0  0  0  0  0  0  0  0  0  0  0  0
   -4.0861   -0.0041   -1.1055 O   0  0  0  0  0  0  0  0  0  0  0  0
   -3.0546   -2.2940   -1.3050 O   0  0  0  0  0  0  0  0  0  0  0  0
   -3.6544   -1.3835    1.0292 N   0  0  0  0  0  0  0  0  0  0  0  0
    3.5182   -0.8216    0.3651 C   0  0  0  0  0  0  0  0  0  0  0  0
    3.4946    0.5635   -0.2478 C   0  0  0  0  0  0  0  0  0  0  0  0
    2.3052    1.3648    0.2725 C   0  0  0  0  0  0  0  0  0  0  0  0
    0.7654   -0.6434   -0.1605 C   0  0  0  0  0  0  0  0  0  0  0  0
    0.9615    0.7288    0.0279 C   0  0  0  0  0  0  0  0  0  0  0  0
   -0.5104   -1.1833   -0.3499 C   0  0  0  0  0  0  0  0  0  0  0  0
   -0.1750    1.5539    0.0431 C   0  0  0  0  0  0  0  0  0  0  0  0
   -1.6206   -0.3434   -0.3443 C   0  0  0  0  0  0  0  0  0  0  0  0
   -1.4540    1.0246   -0.1459 C   0  0  0  0  0  0  0  0  0  0  0  0
   -2.6235    1.9543   -0.1260 C   0  0  0  0  0  0  0  0  0  0  0  0
    4.4154   -1.3703    0.0627 H   0  0  0  0  0  0  0  0  0  0  0  0
    3.4957   -0.7712    1.4587 H   0  0  0  0  0  0  0  0  0  0  0  0
    3.4513    0.4959   -1.3419 H   0  0  0  0  0  0  0  0  0  0  0  0
    4.4208    1.0910    0.0073 H   0  0  0  0  0  0  0  0  0  0  0  0
    2.3312    2.3518   -0.2063 H   0  0  0  0  0  0  0  0  0  0  0  0
    2.4153    1.5261    1.3524 H   0  0  0  0  0  0  0  0  0  0  0  0
   -0.6256   -2.2545   -0.4924 H   0  0  0  0  0  0  0  0  0  0  0  0
   -0.0508    2.6233    0.2041 H   0  0  0  0  0  0  0  0  0  0  0  0
   -3.0159    2.1210   -1.1335 H   0  0  0  0  0  0  0  0  0  0  0  0
   -3.4026    1.6217    0.5665 H   0  0  0  0  0  0  0  0  0  0  0  0
   -2.3217    2.9423    0.2445 H   0  0  0  0  0  0  0  0  0  0  0  0
   -4.3894   -0.8051    1.4543 H   0  0  0  0  0  0  0  0  0  0  0  0
   -3.6830   -2.3694    1.3166 H   0  0  0  0  0  0  0  0  0  0  0  0
  1  3  2  0  0  0  0
  1  4  2  0  0  0  0
  1  8  1  0  0  0  0
  1 11  1  0  0  0  0
  2  5  2  0  0  0  0
  2  6  2  0  0  0  0
  2  7  1  0  0  0  0
  2 15  1  0  0  0  0
  7 29  1  0  0  0  0
  7 30  1  0  0  0  0
  8  9  1  0  0  0  0
  8 18  1  0  0  0  0
  8 19  1  0  0  0  0
  9 10  1  0  0  0  0
  9 20  1  0  0  0  0
  9 21  1  0  0  0  0
 10 12  1  0  0  0  0
 10 22  1  0  0  0  0
 10 23  1  0  0  0  0
 11 12  2  0  0  0  0
 11 13  1  0  0  0  0
 12 14  1  0  0  0  0
 13 15  2  0  0  0  0
 13 24  1  0  0  0  0
 14 16  2  0  0  0  0
 14 25  1  0  0  0  0
 15 16  1  0  0  0  0
 16 17  1  0  0  0  0
 17 26  1  0  0  0  0
 17 27  1  0  0  0  0
 17 28  1  0  0  0  0
M  END
