DB13956
 OpenBabel07062211533D

 58 61  0  0  1  0  0  0  0  0999 V2000
    2.5725    0.2384   -0.0346 O   0  0  0  0  0  0  0  0  0  0  0  0
    3.9901   -1.1565   -1.2041 O   0  0  0  0  0  0  0  0  0  0  0  0
   -8.3328    1.1927    0.6137 O   0  0  0  0  0  0  0  0  0  0  0  0
    0.1105    0.0977   -0.0236 C   0  0  1  0  0  0  0  0  0  0  0  0
   -0.8066   -1.0730   -0.4311 C   0  0  2  0  0  0  0  0  0  0  0  0
   -2.2457   -0.8703    0.0424 C   0  0  1  0  0  0  0  0  0  0  0  0
   -2.8135    0.4190   -0.6252 C   0  0  2  0  0  0  0  0  0  0  0  0
    1.4491   -0.4324   -0.5719 C   0  0  2  0  0  0  0  0  0  0  0  0
   -0.4077    1.3695   -0.7059 C   0  0  0  0  0  0  0  0  0  0  0  0
   -0.0344   -2.3061    0.0294 C   0  0  0  0  0  0  0  0  0  0  0  0
   -1.8872    1.6385   -0.3698 C   0  0  0  0  0  0  0  0  0  0  0  0
    1.4409   -1.9268   -0.1943 C   0  0  0  0  0  0  0  0  0  0  0  0
   -3.1517   -2.0521   -0.3083 C   0  0  0  0  0  0  0  0  0  0  0  0
    0.2130    0.3419    1.5039 C   0  0  0  0  0  0  0  0  0  0  0  0
   -4.2796    0.6321   -0.2583 C   0  0  0  0  0  0  0  0  0  0  0  0
   -4.5297   -1.8504    0.3147 C   0  0  0  0  0  0  0  0  0  0  0  0
   -5.0843   -0.4573    0.1422 C   0  0  0  0  0  0  0  0  0  0  0  0
   -4.8879    1.8926   -0.3943 C   0  0  0  0  0  0  0  0  0  0  0  0
   -6.4420   -0.2516    0.4440 C   0  0  0  0  0  0  0  0  0  0  0  0
    3.8023   -0.2250   -0.4336 C   0  0  0  0  0  0  0  0  0  0  0  0
   -6.2401    2.0810   -0.1001 C   0  0  0  0  0  0  0  0  0  0  0  0
   -7.0163    1.0103    0.3238 C   0  0  0  0  0  0  0  0  0  0  0  0
    4.8884    0.5949    0.2246 C   0  0  0  0  0  0  0  0  0  0  0  0
    6.2850    0.1118   -0.1631 C   0  0  0  0  0  0  0  0  0  0  0  0
    7.3702    0.9751    0.4788 C   0  0  0  0  0  0  0  0  0  0  0  0
    8.7606    0.5212    0.0645 C   0  0  0  0  0  0  0  0  0  0  0  0
   -0.8377   -1.1280   -1.5323 H   0  0  0  0  0  0  0  0  0  0  0  0
   -2.2601   -0.7569    1.1340 H   0  0  0  0  0  0  0  0  0  0  0  0
   -2.8147    0.2561   -1.7143 H   0  0  0  0  0  0  0  0  0  0  0  0
    1.4669   -0.3291   -1.6661 H   0  0  0  0  0  0  0  0  0  0  0  0
   -0.3137    1.2742   -1.7957 H   0  0  0  0  0  0  0  0  0  0  0  0
    0.1989    2.2374   -0.4204 H   0  0  0  0  0  0  0  0  0  0  0  0
   -0.3072   -3.1984   -0.5433 H   0  0  0  0  0  0  0  0  0  0  0  0
   -0.2175   -2.5226    1.0878 H   0  0  0  0  0  0  0  0  0  0  0  0
   -1.9808    1.9630    0.6736 H   0  0  0  0  0  0  0  0  0  0  0  0
   -2.2044    2.4899   -0.9829 H   0  0  0  0  0  0  0  0  0  0  0  0
    2.0303   -2.1383    0.7051 H   0  0  0  0  0  0  0  0  0  0  0  0
    1.8592   -2.5318   -1.0064 H   0  0  0  0  0  0  0  0  0  0  0  0
   -2.7332   -2.9962    0.0577 H   0  0  0  0  0  0  0  0  0  0  0  0
   -3.2441   -2.1451   -1.3982 H   0  0  0  0  0  0  0  0  0  0  0  0
    0.8831    1.1836    1.7150 H   0  0  0  0  0  0  0  0  0  0  0  0
   -0.7506    0.5849    1.9594 H   0  0  0  0  0  0  0  0  0  0  0  0
    0.6094   -0.5257    2.0407 H   0  0  0  0  0  0  0  0  0  0  0  0
   -4.4684   -2.0564    1.3911 H   0  0  0  0  0  0  0  0  0  0  0  0
   -5.2210   -2.5820   -0.1210 H   0  0  0  0  0  0  0  0  0  0  0  0
   -4.3246    2.7542   -0.7397 H   0  0  0  0  0  0  0  0  0  0  0  0
   -7.0553   -1.0879    0.7737 H   0  0  0  0  0  0  0  0  0  0  0  0
   -6.6732    3.0716   -0.2113 H   0  0  0  0  0  0  0  0  0  0  0  0
    4.7579    1.6385   -0.0828 H   0  0  0  0  0  0  0  0  0  0  0  0
    4.7609    0.5233    1.3104 H   0  0  0  0  0  0  0  0  0  0  0  0
    6.4130   -0.9341    0.1423 H   0  0  0  0  0  0  0  0  0  0  0  0
    6.3930    0.1362   -1.2548 H   0  0  0  0  0  0  0  0  0  0  0  0
   -8.5599    2.1280    0.4737 H   0  0  0  0  0  0  0  0  0  0  0  0
    7.2853    0.9284    1.5707 H   0  0  0  0  0  0  0  0  0  0  0  0
    7.2341    2.0231    0.1871 H   0  0  0  0  0  0  0  0  0  0  0  0
    8.9416   -0.5149    0.3679 H   0  0  0  0  0  0  0  0  0  0  0  0
    8.8886    0.5890   -1.0206 H   0  0  0  0  0  0  0  0  0  0  0  0
    9.5212    1.1512    0.5361 H   0  0  0  0  0  0  0  0  0  0  0  0
  1  8  1  0  0  0  0
  1 20  1  0  0  0  0
  2 20  2  0  0  0  0
  3 22  1  0  0  0  0
  3 53  1  0  0  0  0
  4  5  1  6  0  0  0
  4  9  1  0  0  0  0
  4 14  1  0  0  0  0
  5  6  1  1  0  0  0
  5 10  1  0  0  0  0
  5 27  1  0  0  0  0
  6  7  1  6  0  0  0
  6 13  1  0  0  0  0
  6 28  1  0  0  0  0
  7 11  1  0  0  0  0
  7 15  1  0  0  0  0
  7 29  1  6  0  0  0
  8  4  1  1  0  0  0
  8 12  1  0  0  0  0
  8 30  1  0  0  0  0
  9 11  1  0  0  0  0
  9 31  1  0  0  0  0
  9 32  1  0  0  0  0
 10 12  1  0  0  0  0
 10 33  1  0  0  0  0
 10 34  1  0  0  0  0
 11 35  1  0  0  0  0
 11 36  1  0  0  0  0
 12 37  1  0  0  0  0
 12 38  1  0  0  0  0
 13 16  1  0  0  0  0
 13 39  1  0  0  0  0
 13 40  1  0  0  0  0
 14 41  1  0  0  0  0
 14 42  1  0  0  0  0
 14 43  1  0  0  0  0
 15 17  2  0  0  0  0
 15 18  1  0  0  0  0
 16 17  1  0  0  0  0
 16 44  1  0  0  0  0
 16 45  1  0  0  0  0
 17 19  1  0  0  0  0
 18 21  2  0  0  0  0
 18 46  1  0  0  0  0
 19 22  2  0  0  0  0
 19 47  1  0  0  0  0
 20 23  1  0  0  0  0
 21 22  1  0  0  0  0
 21 48  1  0  0  0  0
 23 24  1  0  0  0  0
 23 49  1  0  0  0  0
 23 50  1  0  0  0  0
 24 25  1  0  0  0  0
 24 51  1  0  0  0  0
 24 52  1  0  0  0  0
 25 26  1  0  0  0  0
 25 54  1  0  0  0  0
 25 55  1  0  0  0  0
 26 56  1  0  0  0  0
 26 57  1  0  0  0  0
 26 58  1  0  0  0  0
M  END
