DB13063
 OpenBabel07062211533D

 38 40  0  0  1  0  0  0  0  0999 V2000
   -0.9032    1.3972    1.1427 O   0  0  0  0  0  0  0  0  0  0  0  0
    1.4127    1.4255   -1.7361 O   0  0  0  0  0  0  0  0  0  0  0  0
    3.5066    2.3557   -1.9122 O   0  0  0  0  0  0  0  0  0  0  0  0
   -1.8242    1.4965    0.0564 C   0  0  1  0  0  0  0  0  0  0  0  0
   -0.3251    1.7649   -0.1148 C   0  0  2  0  0  0  0  0  0  0  0  0
    0.6378    0.7662   -0.7055 C   0  0  2  0  0  0  0  0  0  0  0  0
    1.6582    0.1832    0.2845 C   0  0  1  0  0  0  0  0  0  0  0  0
   -2.5106    0.2241   -0.3676 C   0  0  0  0  0  0  0  0  0  0  0  0
   -2.7121    2.6894    0.1808 C   0  0  0  0  0  0  0  0  0  0  0  0
    2.0056   -1.3019    0.0018 C   0  0  0  0  0  0  0  0  0  0  0  0
   -2.5666   -0.9106    0.6697 C   0  0  0  0  0  0  0  0  0  0  0  0
    2.8273    1.0686    0.0103 C   0  0  0  0  0  0  0  0  0  0  0  0
    1.0608   -2.3202    0.6774 C   0  0  0  0  0  0  0  0  0  0  0  0
    2.6729    1.7079   -1.3061 C   0  0  0  0  0  0  0  0  0  0  0  0
   -1.2122   -1.4410    1.0393 C   0  0  0  0  0  0  0  0  0  0  0  0
   -0.3854   -2.1694    0.2658 C   0  0  0  0  0  0  0  0  0  0  0  0
    3.8650    1.3312    0.8084 C   0  0  0  0  0  0  0  0  0  0  0  0
   -0.7605   -2.7810   -1.0542 C   0  0  0  0  0  0  0  0  0  0  0  0
    0.0184    2.7886   -0.2040 H   0  0  0  0  0  0  0  0  0  0  0  0
    0.0896   -0.0171   -1.2266 H   0  0  0  0  0  0  0  0  0  0  0  0
    1.3384    0.2862    1.3272 H   0  0  0  0  0  0  0  0  0  0  0  0
   -2.0691   -0.1368   -1.3030 H   0  0  0  0  0  0  0  0  0  0  0  0
   -3.5503    0.4592   -0.6330 H   0  0  0  0  0  0  0  0  0  0  0  0
   -2.1773    3.5684    0.5573 H   0  0  0  0  0  0  0  0  0  0  0  0
   -3.1359    2.9513   -0.7942 H   0  0  0  0  0  0  0  0  0  0  0  0
   -3.5378    2.4853    0.8708 H   0  0  0  0  0  0  0  0  0  0  0  0
    3.0163   -1.5170    0.3741 H   0  0  0  0  0  0  0  0  0  0  0  0
    2.0371   -1.4858   -1.0800 H   0  0  0  0  0  0  0  0  0  0  0  0
   -3.1960   -1.7257    0.2942 H   0  0  0  0  0  0  0  0  0  0  0  0
   -3.0565   -0.5452    1.5807 H   0  0  0  0  0  0  0  0  0  0  0  0
    1.1610   -2.2202    1.7663 H   0  0  0  0  0  0  0  0  0  0  0  0
    1.3999   -3.3376    0.4454 H   0  0  0  0  0  0  0  0  0  0  0  0
   -0.8269   -1.0647    1.9861 H   0  0  0  0  0  0  0  0  0  0  0  0
    3.9439    0.8628    1.7839 H   0  0  0  0  0  0  0  0  0  0  0  0
    4.6556    2.0132    0.5149 H   0  0  0  0  0  0  0  0  0  0  0  0
   -1.8158   -2.6427   -1.3037 H   0  0  0  0  0  0  0  0  0  0  0  0
   -0.5737   -3.8599   -1.0309 H   0  0  0  0  0  0  0  0  0  0  0  0
   -0.1678   -2.3485   -1.8659 H   0  0  0  0  0  0  0  0  0  0  0  0
  1  4  1  0  0  0  0
  1  5  1  0  0  0  0
  2  6  1  0  0  0  0
  2 14  1  0  0  0  0
  3 14  2  0  0  0  0
  4  5  1  6  0  0  0
  4  8  1  0  0  0  0
  4  9  1  0  0  0  0
  5  6  1  6  0  0  0
  5 19  1  0  0  0  0
  6  7  1  1  0  0  0
  6 20  1  0  0  0  0
  7 10  1  0  0  0  0
  7 12  1  0  0  0  0
  7 21  1  1  0  0  0
  8 11  1  0  0  0  0
  8 22  1  0  0  0  0
  8 23  1  0  0  0  0
  9 24  1  0  0  0  0
  9 25  1  0  0  0  0
  9 26  1  0  0  0  0
 10 13  1  0  0  0  0
 10 27  1  0  0  0  0
 10 28  1  0  0  0  0
 11 15  1  0  0  0  0
 11 29  1  0  0  0  0
 11 30  1  0  0  0  0
 12 14  1  0  0  0  0
 12 17  2  0  0  0  0
 13 16  1  0  0  0  0
 13 31  1  0  0  0  0
 13 32  1  0  0  0  0
 15 16  2  0  0  0  0
 15 33  1  0  0  0  0
 16 18  1  0  0  0  0
 17 34  1  0  0  0  0
 17 35  1  0  0  0  0
 18 36  1  0  0  0  0
 18 37  1  0  0  0  0
 18 38  1  0  0  0  0
M  END
