DB13532
 OpenBabel07062211533D

 41 43  0  0  1  0  0  0  0  0999 V2000
   -5.2278   -2.7057    0.2632 Cl  0  0  0  0  0  0  0  0  0  0  0  0
   -0.8674    1.7138   -0.5510 S   0  0  0  0  0  0  0  0  0  0  0  0
   -6.0760    0.3303   -0.4543 S   0  0  0  0  0  0  0  0  0  0  0  0
   -0.7194    2.4040    0.7148 O   0  0  0  0  0  0  0  0  0  0  0  0
   -1.2157    2.4194   -1.7682 O   0  0  0  0  0  0  0  0  0  0  0  0
   -6.1117    1.5092   -1.3054 O   0  0  0  0  0  0  0  0  0  0  0  0
   -6.8578   -0.8448   -0.8053 O   0  0  0  0  0  0  0  0  0  0  0  0
    0.5222    0.7668   -0.8560 N   0  0  0  0  0  0  0  0  0  0  0  0
   -0.3564   -1.2629    0.1529 N   0  0  0  0  0  0  0  0  0  0  0  0
   -6.4570    0.7892    1.1458 N   0  0  0  0  0  0  0  0  0  0  0  0
    3.2201   -0.1285   -0.3279 C   0  0  0  0  0  0  0  0  0  0  0  0
    3.4932    0.5625    1.0045 C   0  0  0  0  0  0  0  0  0  0  0  0
    4.5387   -0.8459   -0.5986 C   0  0  0  0  0  0  0  0  0  0  0  0
    2.0264   -1.0663   -0.2825 C   0  0  0  0  0  0  0  0  0  0  0  0
    4.9305    1.0580    0.8777 C   0  0  0  0  0  0  0  0  0  0  0  0
    5.6001    0.1589   -0.1629 C   0  0  0  0  0  0  0  0  0  0  0  0
    0.7533   -0.3287    0.1129 C   0  0  1  0  0  0  0  0  0  0  0  0
   -1.6770   -0.8557    0.0307 C   0  0  0  0  0  0  0  0  0  0  0  0
   -2.0738    0.4518   -0.2904 C   0  0  0  0  0  0  0  0  0  0  0  0
   -3.4174    0.8081   -0.4391 C   0  0  0  0  0  0  0  0  0  0  0  0
   -2.6969   -1.8089    0.1856 C   0  0  0  0  0  0  0  0  0  0  0  0
   -4.4040   -0.1574   -0.2663 C   0  0  0  0  0  0  0  0  0  0  0  0
   -4.0449   -1.4657    0.0443 C   0  0  0  0  0  0  0  0  0  0  0  0
    3.0815    0.6322   -1.1078 H   0  0  0  0  0  0  0  0  0  0  0  0
    2.8082    1.3923    1.2040 H   0  0  0  0  0  0  0  0  0  0  0  0
    3.4198   -0.1471    1.8378 H   0  0  0  0  0  0  0  0  0  0  0  0
    4.6216   -1.7562    0.0081 H   0  0  0  0  0  0  0  0  0  0  0  0
    4.6510   -1.1315   -1.6491 H   0  0  0  0  0  0  0  0  0  0  0  0
    1.9031   -1.5414   -1.2651 H   0  0  0  0  0  0  0  0  0  0  0  0
    2.2121   -1.8820    0.4291 H   0  0  0  0  0  0  0  0  0  0  0  0
    5.4494    1.0219    1.8410 H   0  0  0  0  0  0  0  0  0  0  0  0
    4.9478    2.0988    0.5345 H   0  0  0  0  0  0  0  0  0  0  0  0
    5.9273    0.7622   -1.0178 H   0  0  0  0  0  0  0  0  0  0  0  0
    6.4844   -0.3443    0.2409 H   0  0  0  0  0  0  0  0  0  0  0  0
    0.8656    0.1042    1.1132 H   0  0  0  0  0  0  0  0  0  0  0  0
    0.7068    0.5262   -1.8386 H   0  0  0  0  0  0  0  0  0  0  0  0
   -0.1805   -2.2061    0.4816 H   0  0  0  0  0  0  0  0  0  0  0  0
   -3.6779    1.8360   -0.6751 H   0  0  0  0  0  0  0  0  0  0  0  0
   -2.4282   -2.8381    0.4223 H   0  0  0  0  0  0  0  0  0  0  0  0
   -6.5827    1.7905    1.3380 H   0  0  0  0  0  0  0  0  0  0  0  0
   -7.0908    0.1810    1.6785 H   0  0  0  0  0  0  0  0  0  0  0  0
  1 23  1  0  0  0  0
  2  4  2  0  0  0  0
  2  5  2  0  0  0  0
  2  8  1  0  0  0  0
  2 19  1  0  0  0  0
  3  6  2  0  0  0  0
  3  7  2  0  0  0  0
  3 10  1  0  0  0  0
  3 22  1  0  0  0  0
  8 17  1  0  0  0  0
  8 36  1  0  0  0  0
  9 17  1  0  0  0  0
  9 18  1  0  0  0  0
  9 37  1  0  0  0  0
 10 40  1  0  0  0  0
 10 41  1  0  0  0  0
 11 12  1  0  0  0  0
 11 13  1  0  0  0  0
 11 14  1  0  0  0  0
 11 24  1  0  0  0  0
 12 15  1  0  0  0  0
 12 25  1  0  0  0  0
 12 26  1  0  0  0  0
 13 16  1  0  0  0  0
 13 27  1  0  0  0  0
 13 28  1  0  0  0  0
 14 17  1  0  0  0  0
 14 29  1  0  0  0  0
 14 30  1  0  0  0  0
 15 16  1  0  0  0  0
 15 31  1  0  0  0  0
 15 32  1  0  0  0  0
 16 33  1  0  0  0  0
 16 34  1  0  0  0  0
 17 35  1  1  0  0  0
 18 19  2  0  0  0  0
 18 21  1  0  0  0  0
 19 20  1  0  0  0  0
 20 22  2  0  0  0  0
 20 38  1  0  0  0  0
 21 23  2  0  0  0  0
 21 39  1  0  0  0  0
 22 23  1  0  0  0  0
M  END
