DB13292
 OpenBabel07062211533D

 40 43  0  0  0  0  0  0  0  0999 V2000
   -3.0309   -0.1238    1.7412 S   0  0  0  0  0  0  0  0  0  0  0  0
    3.0350   -0.0032    0.7781 N   0  0  0  0  0  0  0  0  0  0  0  0
    0.5921    0.0333   -0.5306 C   0  0  0  0  0  0  0  0  0  0  0  0
    1.4487   -1.1979   -0.6829 C   0  0  0  0  0  0  0  0  0  0  0  0
    1.3418    1.3345   -0.5499 C   0  0  0  0  0  0  0  0  0  0  0  0
    2.9255   -0.9236   -0.3553 C   0  0  0  0  0  0  0  0  0  0  0  0
    2.5048    1.3329    0.4577 C   0  0  0  0  0  0  0  0  0  0  0  0
   -0.7329   -0.0380   -0.3412 C   0  0  0  0  0  0  0  0  0  0  0  0
   -1.5119    1.2215   -0.1995 C   0  0  0  0  0  0  0  0  0  0  0  0
   -1.3648   -1.3702   -0.1439 C   0  0  0  0  0  0  0  0  0  0  0  0
    4.4046    0.0816    1.2761 C   0  0  0  0  0  0  0  0  0  0  0  0
   -2.5819    1.2718    0.7140 C   0  0  0  0  0  0  0  0  0  0  0  0
   -2.4244   -1.5022    0.7737 C   0  0  0  0  0  0  0  0  0  0  0  0
   -1.2420    2.3543   -0.9877 C   0  0  0  0  0  0  0  0  0  0  0  0
   -0.9667   -2.4977   -0.8836 C   0  0  0  0  0  0  0  0  0  0  0  0
   -3.3282    2.4517    0.8534 C   0  0  0  0  0  0  0  0  0  0  0  0
   -3.0327   -2.7519    0.9653 C   0  0  0  0  0  0  0  0  0  0  0  0
   -1.9950    3.5209   -0.8461 C   0  0  0  0  0  0  0  0  0  0  0  0
   -1.5832   -3.7349   -0.6906 C   0  0  0  0  0  0  0  0  0  0  0  0
   -3.0336    3.5711    0.0771 C   0  0  0  0  0  0  0  0  0  0  0  0
   -2.6116   -3.8629    0.2365 C   0  0  0  0  0  0  0  0  0  0  0  0
    1.1677   -1.9874    0.0209 H   0  0  0  0  0  0  0  0  0  0  0  0
    1.4445   -1.5499   -1.7192 H   0  0  0  0  0  0  0  0  0  0  0  0
    1.7406    1.4869   -1.5615 H   0  0  0  0  0  0  0  0  0  0  0  0
    0.8241    2.2416   -0.2593 H   0  0  0  0  0  0  0  0  0  0  0  0
    3.4092   -1.8819   -0.1268 H   0  0  0  0  0  0  0  0  0  0  0  0
    3.4406   -0.5137   -1.2350 H   0  0  0  0  0  0  0  0  0  0  0  0
    3.2918    1.9843    0.0535 H   0  0  0  0  0  0  0  0  0  0  0  0
    2.1714    1.7903    1.3983 H   0  0  0  0  0  0  0  0  0  0  0  0
    5.0982    0.4554    0.5144 H   0  0  0  0  0  0  0  0  0  0  0  0
    4.7552   -0.9021    1.6073 H   0  0  0  0  0  0  0  0  0  0  0  0
    4.4572    0.7438    2.1475 H   0  0  0  0  0  0  0  0  0  0  0  0
   -0.5327    2.3321   -1.8121 H   0  0  0  0  0  0  0  0  0  0  0  0
   -0.2923   -2.4470   -1.7288 H   0  0  0  0  0  0  0  0  0  0  0  0
   -4.1515    2.5113    1.5619 H   0  0  0  0  0  0  0  0  0  0  0  0
   -3.8459   -2.8740    1.6776 H   0  0  0  0  0  0  0  0  0  0  0  0
   -1.7881    4.3800   -1.4776 H   0  0  0  0  0  0  0  0  0  0  0  0
   -1.2837   -4.5900   -1.2897 H   0  0  0  0  0  0  0  0  0  0  0  0
   -3.6231    4.4769    0.1842 H   0  0  0  0  0  0  0  0  0  0  0  0
   -3.0959   -4.8239    0.3826 H   0  0  0  0  0  0  0  0  0  0  0  0
  1 12  1  0  0  0  0
  1 13  1  0  0  0  0
  2  6  1  0  0  0  0
  2  7  1  0  0  0  0
  2 11  1  0  0  0  0
  3  4  1  0  0  0  0
  3  5  1  0  0  0  0
  3  8  2  0  0  0  0
  4  6  1  0  0  0  0
  4 22  1  0  0  0  0
  4 23  1  0  0  0  0
  5  7  1  0  0  0  0
  5 24  1  0  0  0  0
  5 25  1  0  0  0  0
  6 26  1  0  0  0  0
  6 27  1  0  0  0  0
  7 28  1  0  0  0  0
  7 29  1  0  0  0  0
  8  9  1  0  0  0  0
  8 10  1  0  0  0  0
  9 12  2  0  0  0  0
  9 14  1  0  0  0  0
 10 13  2  0  0  0  0
 10 15  1  0  0  0  0
 11 30  1  0  0  0  0
 11 31  1  0  0  0  0
 11 32  1  0  0  0  0
 12 16  1  0  0  0  0
 13 17  1  0  0  0  0
 14 18  2  0  0  0  0
 14 33  1  0  0  0  0
 15 19  2  0  0  0  0
 15 34  1  0  0  0  0
 16 20  2  0  0  0  0
 16 35  1  0  0  0  0
 17 21  2  0  0  0  0
 17 36  1  0  0  0  0
 18 20  1  0  0  0  0
 18 37  1  0  0  0  0
 19 21  1  0  0  0  0
 19 38  1  0  0  0  0
 20 39  1  0  0  0  0
 21 40  1  0  0  0  0
M  END
