DB13269
 OpenBabel07062211533D

 16 16  0  0  0  0  0  0  0  0999 V2000
   -0.8681    2.5991    0.2937 Cl  0  0  0  0  0  0  0  0  0  0  0  0
    3.9217    0.1920   -0.1902 Cl  0  0  0  0  0  0  0  0  0  0  0  0
   -2.6250   -0.2475   -1.0026 O   0  0  0  0  0  0  0  0  0  0  0  0
   -0.5643   -0.1059    0.1763 C   0  0  0  0  0  0  0  0  0  0  0  0
   -2.0470   -0.2476    0.2959 C   0  0  0  0  0  0  0  0  0  0  0  0
    0.0528    1.1449    0.1665 C   0  0  0  0  0  0  0  0  0  0  0  0
    0.2057   -1.2644    0.0729 C   0  0  0  0  0  0  0  0  0  0  0  0
    1.4400    1.2374    0.0532 C   0  0  0  0  0  0  0  0  0  0  0  0
    1.5928   -1.1719   -0.0405 C   0  0  0  0  0  0  0  0  0  0  0  0
    2.2101    0.0790   -0.0504 C   0  0  0  0  0  0  0  0  0  0  0  0
   -2.3078   -1.1963    0.7791 H   0  0  0  0  0  0  0  0  0  0  0  0
   -2.5127    0.5344    0.9028 H   0  0  0  0  0  0  0  0  0  0  0  0
   -0.2607   -2.2461    0.0767 H   0  0  0  0  0  0  0  0  0  0  0  0
    1.9231    2.2123    0.0455 H   0  0  0  0  0  0  0  0  0  0  0  0
    2.1803   -2.0831   -0.1210 H   0  0  0  0  0  0  0  0  0  0  0  0
   -2.3408    0.5637   -1.4577 H   0  0  0  0  0  0  0  0  0  0  0  0
  1  6  1  0  0  0  0
  2 10  1  0  0  0  0
  3  5  1  0  0  0  0
  3 16  1  0  0  0  0
  4  5  1  0  0  0  0
  4  6  2  0  0  0  0
  4  7  1  0  0  0  0
  5 11  1  0  0  0  0
  5 12  1  0  0  0  0
  6  8  1  0  0  0  0
  7  9  2  0  0  0  0
  7 13  1  0  0  0  0
  8 10  2  0  0  0  0
  8 14  1  0  0  0  0
  9 10  1  0  0  0  0
  9 15  1  0  0  0  0
M  END
