DB13628
 OpenBabel07062211533D

 22 22  0  0  0  0  0  0  0  0999 V2000
   -1.6466   -0.0586   -0.0008 O   0  0  0  0  0  0  0  0  0  0  0  0
    4.4801    1.1207    0.0015 O   0  0  0  0  0  0  0  0  0  0  0  0
   -0.9450   -2.2510   -0.0010 O   0  0  0  0  0  0  0  0  0  0  0  0
    0.6499   -0.4787   -0.0011 C   0  0  0  0  0  0  0  0  0  0  0  0
    1.7588   -1.3247   -0.0004 C   0  0  0  0  0  0  0  0  0  0  0  0
    0.8279    0.9048   -0.0014 C   0  0  0  0  0  0  0  0  0  0  0  0
   -0.6922   -1.0389   -0.0013 C   0  0  0  0  0  0  0  0  0  0  0  0
   -3.0130   -0.4859    0.0003 C   0  0  0  0  0  0  0  0  0  0  0  0
    3.0459   -0.7871    0.0001 C   0  0  0  0  0  0  0  0  0  0  0  0
    2.1151    1.4425   -0.0010 C   0  0  0  0  0  0  0  0  0  0  0  0
    3.2242    0.5964   -0.0001 C   0  0  0  0  0  0  0  0  0  0  0  0
   -3.9109    0.7330    0.0009 C   0  0  0  0  0  0  0  0  0  0  0  0
    1.6423   -2.4053   -0.0001 H   0  0  0  0  0  0  0  0  0  0  0  0
   -0.0055    1.6016   -0.0019 H   0  0  0  0  0  0  0  0  0  0  0  0
   -3.2059   -1.0894   -0.8935 H   0  0  0  0  0  0  0  0  0  0  0  0
   -3.2044   -1.0891    0.8946 H   0  0  0  0  0  0  0  0  0  0  0  0
    3.9018   -1.4568    0.0011 H   0  0  0  0  0  0  0  0  0  0  0  0
    2.2481    2.5209   -0.0009 H   0  0  0  0  0  0  0  0  0  0  0  0
   -4.9651    0.4421    0.0017 H   0  0  0  0  0  0  0  0  0  0  0  0
   -3.7147    1.3554    0.8800 H   0  0  0  0  0  0  0  0  0  0  0  0
   -3.7161    1.3552   -0.8789 H   0  0  0  0  0  0  0  0  0  0  0  0
    5.1254    0.3929    0.0021 H   0  0  0  0  0  0  0  0  0  0  0  0
  1  7  1  0  0  0  0
  1  8  1  0  0  0  0
  2 11  1  0  0  0  0
  2 22  1  0  0  0  0
  3  7  2  0  0  0  0
  4  5  2  0  0  0  0
  4  6  1  0  0  0  0
  4  7  1  0  0  0  0
  5  9  1  0  0  0  0
  5 13  1  0  0  0  0
  6 10  2  0  0  0  0
  6 14  1  0  0  0  0
  8 12  1  0  0  0  0
  8 15  1  0  0  0  0
  8 16  1  0  0  0  0
  9 11  2  0  0  0  0
  9 17  1  0  0  0  0
 10 11  1  0  0  0  0
 10 18  1  0  0  0  0
 12 19  1  0  0  0  0
 12 20  1  0  0  0  0
 12 21  1  0  0  0  0
M  END
