DB13943
 OpenBabel07062211533D

 70 74  0  0  1  0  0  0  0  0999 V2000
    2.3487   -1.4556    0.6972 O   0  0  0  0  0  0  0  0  0  0  0  0
   -8.3993   -0.0393    0.3771 O   0  0  0  0  0  0  0  0  0  0  0  0
    3.5310   -1.3368    2.6749 O   0  0  0  0  0  0  0  0  0  0  0  0
   -0.8137    0.2818    1.2172 C   0  0  2  0  0  0  0  0  0  0  0  0
    0.0305   -0.6852    0.3650 C   0  0  2  0  0  0  0  0  0  0  0  0
   -2.0750    0.7611    0.4922 C   0  0  1  0  0  0  0  0  0  0  0  0
   -2.9554   -0.4798    0.1415 C   0  0  1  0  0  0  0  0  0  0  0  0
   -4.3069   -0.0895   -0.5725 C   0  0  2  0  0  0  0  0  0  0  0  0
   -0.8149   -1.9344    0.0871 C   0  0  0  0  0  0  0  0  0  0  0  0
   -2.1430   -1.5753   -0.6037 C   0  0  0  0  0  0  0  0  0  0  0  0
    1.2096   -0.9068    1.3315 C   0  0  2  0  0  0  0  0  0  0  0  0
    0.2041    1.3122    1.6998 C   0  0  0  0  0  0  0  0  0  0  0  0
   -2.8741    1.7478    1.3526 C   0  0  0  0  0  0  0  0  0  0  0  0
    1.4936    0.4961    1.9023 C   0  0  0  0  0  0  0  0  0  0  0  0
   -5.0023    1.0247    0.2206 C   0  0  0  0  0  0  0  0  0  0  0  0
    0.5362   -0.0932   -0.9753 C   0  0  0  0  0  0  0  0  0  0  0  0
   -4.1445    2.1948    0.6411 C   0  0  0  0  0  0  0  0  0  0  0  0
   -5.2150   -1.3528   -0.6237 C   0  0  0  0  0  0  0  0  0  0  0  0
   -4.0739    0.4183   -2.0135 C   0  0  0  0  0  0  0  0  0  0  0  0
   -6.6705   -1.0450   -0.9384 C   0  0  0  0  0  0  0  0  0  0  0  0
   -6.3094    1.0216    0.5317 C   0  0  0  0  0  0  0  0  0  0  0  0
   -7.2172   -0.0397    0.0398 C   0  0  0  0  0  0  0  0  0  0  0  0
    3.4595   -1.6227    1.4876 C   0  0  0  0  0  0  0  0  0  0  0  0
    4.5808   -2.2139    0.6638 C   0  0  0  0  0  0  0  0  0  0  0  0
    5.7954   -1.2908    0.6059 C   0  0  0  0  0  0  0  0  0  0  0  0
    5.4538    0.0391   -0.0427 C   0  0  0  0  0  0  0  0  0  0  0  0
    6.6513    0.9770   -0.1587 C   0  0  0  0  0  0  0  0  0  0  0  0
    5.0056   -0.0971   -1.4943 C   0  0  0  0  0  0  0  0  0  0  0  0
    6.2218    1.9995   -1.2064 C   0  0  0  0  0  0  0  0  0  0  0  0
    5.1537    1.3120   -2.0588 C   0  0  0  0  0  0  0  0  0  0  0  0
   -1.1519   -0.2548    2.1198 H   0  0  0  0  0  0  0  0  0  0  0  0
   -1.7857    1.2815   -0.4272 H   0  0  0  0  0  0  0  0  0  0  0  0
   -3.2348   -0.9303    1.1082 H   0  0  0  0  0  0  0  0  0  0  0  0
   -1.0416   -2.4530    1.0277 H   0  0  0  0  0  0  0  0  0  0  0  0
   -0.2582   -2.6484   -0.5318 H   0  0  0  0  0  0  0  0  0  0  0  0
   -1.9352   -1.2605   -1.6310 H   0  0  0  0  0  0  0  0  0  0  0  0
   -2.7351   -2.4940   -0.6780 H   0  0  0  0  0  0  0  0  0  0  0  0
    0.9002   -1.5794    2.1440 H   0  0  0  0  0  0  0  0  0  0  0  0
   -0.1112    1.7962    2.6298 H   0  0  0  0  0  0  0  0  0  0  0  0
    0.3631    2.0988    0.9538 H   0  0  0  0  0  0  0  0  0  0  0  0
   -2.2666    2.6326    1.5761 H   0  0  0  0  0  0  0  0  0  0  0  0
   -3.1319    1.2876    2.3153 H   0  0  0  0  0  0  0  0  0  0  0  0
    2.3378    0.9906    1.4093 H   0  0  0  0  0  0  0  0  0  0  0  0
    1.7304    0.4372    2.9705 H   0  0  0  0  0  0  0  0  0  0  0  0
    1.1917    0.7714   -0.8295 H   0  0  0  0  0  0  0  0  0  0  0  0
    1.1123   -0.8408   -1.5331 H   0  0  0  0  0  0  0  0  0  0  0  0
   -0.2773    0.2325   -1.6287 H   0  0  0  0  0  0  0  0  0  0  0  0
   -3.8803    2.7796   -0.2486 H   0  0  0  0  0  0  0  0  0  0  0  0
   -4.6952    2.8752    1.3023 H   0  0  0  0  0  0  0  0  0  0  0  0
   -5.1803   -1.8675    0.3468 H   0  0  0  0  0  0  0  0  0  0  0  0
   -4.8433   -2.0680   -1.3672 H   0  0  0  0  0  0  0  0  0  0  0  0
   -3.7279   -0.3845   -2.6731 H   0  0  0  0  0  0  0  0  0  0  0  0
   -4.9956    0.8165   -2.4537 H   0  0  0  0  0  0  0  0  0  0  0  0
   -3.3308    1.2207   -2.0558 H   0  0  0  0  0  0  0  0  0  0  0  0
   -7.2580   -1.9660   -0.8553 H   0  0  0  0  0  0  0  0  0  0  0  0
   -6.7942   -0.6530   -1.9527 H   0  0  0  0  0  0  0  0  0  0  0  0
   -6.7635    1.8222    1.1060 H   0  0  0  0  0  0  0  0  0  0  0  0
    4.8557   -3.1669    1.1308 H   0  0  0  0  0  0  0  0  0  0  0  0
    4.2239   -2.4625   -0.3415 H   0  0  0  0  0  0  0  0  0  0  0  0
    6.1715   -1.1117    1.6208 H   0  0  0  0  0  0  0  0  0  0  0  0
    6.5988   -1.7940    0.0545 H   0  0  0  0  0  0  0  0  0  0  0  0
    4.6717    0.5535    0.5306 H   0  0  0  0  0  0  0  0  0  0  0  0
    7.5383    0.4369   -0.5123 H   0  0  0  0  0  0  0  0  0  0  0  0
    6.9051    1.4496    0.7952 H   0  0  0  0  0  0  0  0  0  0  0  0
    3.9764   -0.4552   -1.5919 H   0  0  0  0  0  0  0  0  0  0  0  0
    5.6582   -0.7862   -2.0443 H   0  0  0  0  0  0  0  0  0  0  0  0
    7.0728    2.3315   -1.8098 H   0  0  0  0  0  0  0  0  0  0  0  0
    5.7962    2.8865   -0.7231 H   0  0  0  0  0  0  0  0  0  0  0  0
    4.2063    1.8570   -1.9754 H   0  0  0  0  0  0  0  0  0  0  0  0
    5.4281    1.2909   -3.1183 H   0  0  0  0  0  0  0  0  0  0  0  0
  1 11  1  0  0  0  0
  1 23  1  0  0  0  0
  2 22  2  0  0  0  0
  3 23  2  0  0  0  0
  4  5  1  6  0  0  0
  4 12  1  0  0  0  0
  4 31  1  0  0  0  0
  5  9  1  0  0  0  0
  5 11  1  1  0  0  0
  5 16  1  0  0  0  0
  6  4  1  1  0  0  0
  6 13  1  0  0  0  0
  6 32  1  0  0  0  0
  7  6  1  1  0  0  0
  7 10  1  0  0  0  0
  7 33  1  0  0  0  0
  8  7  1  1  0  0  0
  8 15  1  0  0  0  0
  8 18  1  0  0  0  0
  8 19  1  0  0  0  0
  9 10  1  0  0  0  0
  9 34  1  0  0  0  0
  9 35  1  0  0  0  0
 10 36  1  0  0  0  0
 10 37  1  0  0  0  0
 11 14  1  0  0  0  0
 11 38  1  1  0  0  0
 12 14  1  0  0  0  0
 12 39  1  0  0  0  0
 12 40  1  0  0  0  0
 13 17  1  0  0  0  0
 13 41  1  0  0  0  0
 13 42  1  0  0  0  0
 14 43  1  0  0  0  0
 14 44  1  0  0  0  0
 15 17  1  0  0  0  0
 15 21  2  0  0  0  0
 16 45  1  0  0  0  0
 16 46  1  0  0  0  0
 16 47  1  0  0  0  0
 17 48  1  0  0  0  0
 17 49  1  0  0  0  0
 18 20  1  0  0  0  0
 18 50  1  0  0  0  0
 18 51  1  0  0  0  0
 19 52  1  0  0  0  0
 19 53  1  0  0  0  0
 19 54  1  0  0  0  0
 20 22  1  0  0  0  0
 20 55  1  0  0  0  0
 20 56  1  0  0  0  0
 21 22  1  0  0  0  0
 21 57  1  0  0  0  0
 23 24  1  0  0  0  0
 24 25  1  0  0  0  0
 24 58  1  0  0  0  0
 24 59  1  0  0  0  0
 25 26  1  0  0  0  0
 25 60  1  0  0  0  0
 25 61  1  0  0  0  0
 26 27  1  0  0  0  0
 26 28  1  0  0  0  0
 26 62  1  0  0  0  0
 27 29  1  0  0  0  0
 27 63  1  0  0  0  0
 27 64  1  0  0  0  0
 28 30  1  0  0  0  0
 28 65  1  0  0  0  0
 28 66  1  0  0  0  0
 29 30  1  0  0  0  0
 29 67  1  0  0  0  0
 29 68  1  0  0  0  0
 30 69  1  0  0  0  0
 30 70  1  0  0  0  0
M  END
