DB13247
 OpenBabel07062211533D

 46 46  0  0  0  0  0  0  0  0999 V2000
    4.2011   -1.8353    1.5149 O   0  0  0  0  0  0  0  0  0  0  0  0
    2.0467   -0.0928   -1.0625 O   0  0  0  0  0  0  0  0  0  0  0  0
   -2.5823   -0.1105   -0.7000 N   0  0  0  0  0  0  0  0  0  0  0  0
    4.2660    0.2486    0.4218 N   0  0  0  0  0  0  0  0  0  0  0  0
    0.7399    1.1919    0.3670 N   0  0  0  0  0  0  0  0  0  0  0  0
   -3.3676   -1.2914   -0.3350 C   0  0  0  0  0  0  0  0  0  0  0  0
   -3.3598    1.1077   -0.4644 C   0  0  0  0  0  0  0  0  0  0  0  0
   -1.3316   -0.0743    0.0468 C   0  0  0  0  0  0  0  0  0  0  0  0
    5.0810    0.8793   -0.5893 C   0  0  0  0  0  0  0  0  0  0  0  0
    6.3746    0.0919   -0.5291 C   0  0  0  0  0  0  0  0  0  0  0  0
   -0.4939    1.1214   -0.3822 C   0  0  0  0  0  0  0  0  0  0  0  0
    5.9353   -1.3006   -0.0926 C   0  0  0  0  0  0  0  0  0  0  0  0
    3.0537    0.8672    0.9126 C   0  0  0  0  0  0  0  0  0  0  0  0
    4.7069   -1.0324    0.7452 C   0  0  0  0  0  0  0  0  0  0  0  0
   -3.6949   -1.2693    1.1553 C   0  0  0  0  0  0  0  0  0  0  0  0
   -2.5924   -2.5514   -0.7072 C   0  0  0  0  0  0  0  0  0  0  0  0
   -3.6869    1.2479    1.0196 C   0  0  0  0  0  0  0  0  0  0  0  0
   -4.6323    1.0684   -1.3046 C   0  0  0  0  0  0  0  0  0  0  0  0
    1.9139    0.5743   -0.0397 C   0  0  0  0  0  0  0  0  0  0  0  0
   -4.2931   -1.3602   -0.9153 H   0  0  0  0  0  0  0  0  0  0  0  0
   -2.8236    1.9916   -0.8211 H   0  0  0  0  0  0  0  0  0  0  0  0
   -1.3866   -0.0774    1.1362 H   0  0  0  0  0  0  0  0  0  0  0  0
   -0.7224   -0.9510   -0.2037 H   0  0  0  0  0  0  0  0  0  0  0  0
    4.5873    0.7733   -1.5602 H   0  0  0  0  0  0  0  0  0  0  0  0
    5.2336    1.9380   -0.3612 H   0  0  0  0  0  0  0  0  0  0  0  0
    6.9168    0.0908   -1.4786 H   0  0  0  0  0  0  0  0  0  0  0  0
    7.0348    0.5212    0.2351 H   0  0  0  0  0  0  0  0  0  0  0  0
   -0.9714    2.0809   -0.1727 H   0  0  0  0  0  0  0  0  0  0  0  0
   -0.2600    1.0752   -1.4521 H   0  0  0  0  0  0  0  0  0  0  0  0
    5.6481   -1.9168   -0.9502 H   0  0  0  0  0  0  0  0  0  0  0  0
    6.7072   -1.8062    0.4926 H   0  0  0  0  0  0  0  0  0  0  0  0
    2.8057    0.4380    1.8892 H   0  0  0  0  0  0  0  0  0  0  0  0
    3.2079    1.9457    1.0132 H   0  0  0  0  0  0  0  0  0  0  0  0
   -3.8392   -2.3247    1.4443 H   0  0  0  0  0  0  0  0  0  0  0  0
   -2.9368   -0.9737    1.8784 H   0  0  0  0  0  0  0  0  0  0  0  0
   -4.6932   -0.8897    1.3776 H   0  0  0  0  0  0  0  0  0  0  0  0
   -2.1964   -2.4950   -1.7275 H   0  0  0  0  0  0  0  0  0  0  0  0
   -3.2609   -3.4206   -0.6750 H   0  0  0  0  0  0  0  0  0  0  0  0
   -1.7687   -2.7729   -0.0205 H   0  0  0  0  0  0  0  0  0  0  0  0
   -3.7767    2.3391    1.1652 H   0  0  0  0  0  0  0  0  0  0  0  0
   -4.6942    0.9476    1.3152 H   0  0  0  0  0  0  0  0  0  0  0  0
   -2.9203    1.0268    1.7615 H   0  0  0  0  0  0  0  0  0  0  0  0
   -4.4219    0.7933   -2.3445 H   0  0  0  0  0  0  0  0  0  0  0  0
   -5.0840    2.0680   -1.3271 H   0  0  0  0  0  0  0  0  0  0  0  0
   -5.4044    0.3994   -0.9113 H   0  0  0  0  0  0  0  0  0  0  0  0
    0.7352    1.7187    1.2360 H   0  0  0  0  0  0  0  0  0  0  0  0
  1 14  2  0  0  0  0
  2 19  2  0  0  0  0
  3  6  1  0  0  0  0
  3  7  1  0  0  0  0
  3  8  1  0  0  0  0
  4  9  1  0  0  0  0
  4 13  1  0  0  0  0
  4 14  1  0  0  0  0
  5 11  1  0  0  0  0
  5 19  1  0  0  0  0
  5 46  1  0  0  0  0
  6 15  1  0  0  0  0
  6 16  1  0  0  0  0
  6 20  1  0  0  0  0
  7 17  1  0  0  0  0
  7 18  1  0  0  0  0
  7 21  1  0  0  0  0
  8 11  1  0  0  0  0
  8 22  1  0  0  0  0
  8 23  1  0  0  0  0
  9 10  1  0  0  0  0
  9 24  1  0  0  0  0
  9 25  1  0  0  0  0
 10 12  1  0  0  0  0
 10 26  1  0  0  0  0
 10 27  1  0  0  0  0
 11 28  1  0  0  0  0
 11 29  1  0  0  0  0
 12 14  1  0  0  0  0
 12 30  1  0  0  0  0
 12 31  1  0  0  0  0
 13 19  1  0  0  0  0
 13 32  1  0  0  0  0
 13 33  1  0  0  0  0
 15 34  1  0  0  0  0
 15 35  1  0  0  0  0
 15 36  1  0  0  0  0
 16 37  1  0  0  0  0
 16 38  1  0  0  0  0
 16 39  1  0  0  0  0
 17 40  1  0  0  0  0
 17 41  1  0  0  0  0
 17 42  1  0  0  0  0
 18 43  1  0  0  0  0
 18 44  1  0  0  0  0
 18 45  1  0  0  0  0
M  END
