DB13583
 OpenBabel07062211533D

 27 27  0  0  1  0  0  0  0  0999 V2000
    0.3570    0.1132    0.3936 O   0  0  0  0  0  0  0  0  0  0  0  0
    2.3673   -0.3957   -1.4837 O   0  0  0  0  0  0  0  0  0  0  0  0
    4.5168   -0.4659    0.2664 O   0  0  0  0  0  0  0  0  0  0  0  0
    2.5330    0.6372   -0.5094 C   0  0  1  0  0  0  0  0  0  0  0  0
    1.1581    1.1708   -0.1233 C   0  0  0  0  0  0  0  0  0  0  0  0
   -0.9979    0.2335    0.2359 C   0  0  0  0  0  0  0  0  0  0  0  0
    3.2554    0.0394    0.6908 C   0  0  0  0  0  0  0  0  0  0  0  0
   -1.7980   -0.8979    0.1104 C   0  0  0  0  0  0  0  0  0  0  0  0
   -1.5628    1.5049    0.2030 C   0  0  0  0  0  0  0  0  0  0  0  0
   -3.1765   -0.7567   -0.0491 C   0  0  0  0  0  0  0  0  0  0  0  0
   -1.2036   -2.2672    0.1441 C   0  0  0  0  0  0  0  0  0  0  0  0
   -2.9413    1.6460    0.0434 C   0  0  0  0  0  0  0  0  0  0  0  0
   -3.7481    0.5153   -0.0827 C   0  0  0  0  0  0  0  0  0  0  0  0
    3.1415    1.4229   -0.9688 H   0  0  0  0  0  0  0  0  0  0  0  0
    0.7100    1.5871   -1.0354 H   0  0  0  0  0  0  0  0  0  0  0  0
    1.2600    1.9585    0.6319 H   0  0  0  0  0  0  0  0  0  0  0  0
    2.7039   -0.7976    1.1315 H   0  0  0  0  0  0  0  0  0  0  0  0
    3.4294    0.7925    1.4650 H   0  0  0  0  0  0  0  0  0  0  0  0
   -0.9786    2.4114    0.3268 H   0  0  0  0  0  0  0  0  0  0  0  0
   -3.8194   -1.6273   -0.1486 H   0  0  0  0  0  0  0  0  0  0  0  0
   -1.9660   -3.0474    0.0469 H   0  0  0  0  0  0  0  0  0  0  0  0
   -0.4948   -2.3935   -0.6810 H   0  0  0  0  0  0  0  0  0  0  0  0
   -0.6825   -2.4324    1.0930 H   0  0  0  0  0  0  0  0  0  0  0  0
   -3.3879    2.6359    0.0241 H   0  0  0  0  0  0  0  0  0  0  0  0
   -4.8217    0.6254   -0.2053 H   0  0  0  0  0  0  0  0  0  0  0  0
    1.7994   -1.0832   -1.0951 H   0  0  0  0  0  0  0  0  0  0  0  0
    4.3476   -1.1290   -0.4246 H   0  0  0  0  0  0  0  0  0  0  0  0
  1  5  1  0  0  0  0
  1  6  1  0  0  0  0
  2  4  1  0  0  0  0
  2 26  1  0  0  0  0
  3  7  1  0  0  0  0
  3 27  1  0  0  0  0
  4  5  1  0  0  0  0
  4  7  1  0  0  0  0
  4 14  1  6  0  0  0
  5 15  1  0  0  0  0
  5 16  1  0  0  0  0
  6  8  2  0  0  0  0
  6  9  1  0  0  0  0
  7 17  1  0  0  0  0
  7 18  1  0  0  0  0
  8 10  1  0  0  0  0
  8 11  1  0  0  0  0
  9 12  2  0  0  0  0
  9 19  1  0  0  0  0
 10 13  2  0  0  0  0
 10 20  1  0  0  0  0
 11 21  1  0  0  0  0
 11 22  1  0  0  0  0
 11 23  1  0  0  0  0
 12 13  1  0  0  0  0
 12 24  1  0  0  0  0
 13 25  1  0  0  0  0
M  END
