DB13972
 OpenBabel07062211533D

 20 19  0  0  1  0  0  0  0  0999 V2000
   -2.3402   -0.0435    1.1075 S   0  0  0  0  0  0  0  0  0  0  0  0
    2.7597   -1.2067   -1.5488 O   0  0  0  0  0  0  0  0  0  0  0  0
    1.4102   -2.4366   -0.1814 O   0  0  0  0  0  0  0  0  0  0  0  0
    1.9298    1.1622   -0.3678 N   0  3  0  0  0  0  0  0  0  0  0  0
    1.7629   -0.1494    0.3343 C   0  0  1  0  0  0  0  0  0  0  0  0
    0.4154   -0.1120    1.0708 C   0  0  0  0  0  0  0  0  0  0  0  0
   -0.8001   -0.0678    0.1417 C   0  0  0  0  0  0  0  0  0  0  0  0
    1.9946   -1.3809   -0.5588 C   0  0  0  0  0  0  0  0  0  0  0  0
   -3.5083    0.0525   -0.2678 C   0  0  0  0  0  0  0  0  0  0  0  0
    2.5620   -0.1625    1.0860 H   0  0  0  0  0  0  0  0  0  0  0  0
    0.3456   -0.9964    1.7182 H   0  0  0  0  0  0  0  0  0  0  0  0
    0.4000    0.7585    1.7409 H   0  0  0  0  0  0  0  0  0  0  0  0
   -0.8184   -0.9409   -0.5169 H   0  0  0  0  0  0  0  0  0  0  0  0
   -0.7767    0.8331   -0.4784 H   0  0  0  0  0  0  0  0  0  0  0  0
    1.7811    1.9586    0.2662 H   0  0  0  0  0  0  0  0  0  0  0  0
    1.2772    1.2618   -1.1563 H   0  0  0  0  0  0  0  0  0  0  0  0
    2.8803    1.2531   -0.7508 H   0  0  0  0  0  0  0  0  0  0  0  0
   -3.3414    0.9639   -0.8477 H   0  0  0  0  0  0  0  0  0  0  0  0
   -4.5277    0.0741    0.1263 H   0  0  0  0  0  0  0  0  0  0  0  0
   -3.4060   -0.8212   -0.9170 H   0  0  0  0  0  0  0  0  0  0  0  0
  1  7  1  0  0  0  0
  1  9  1  0  0  0  0
  2  8  2  0  0  0  0
  3  8  1  0  0  0  0
  4  5  1  0  0  0  0
  4 15  1  0  0  0  0
  4 16  1  0  0  0  0
  4 17  1  0  0  0  0
  5  6  1  0  0  0  0
  5  8  1  0  0  0  0
  5 10  1  1  0  0  0
  6  7  1  0  0  0  0
  6 11  1  0  0  0  0
  6 12  1  0  0  0  0
  7 13  1  0  0  0  0
  7 14  1  0  0  0  0
  9 18  1  0  0  0  0
  9 19  1  0  0  0  0
  9 20  1  0  0  0  0
M  CHG  1   4   1
M  END
