DB13211
 OpenBabel07062211533D

 28 29  0  0  1  0  0  0  0  0999 V2000
    0.4710    0.4777   -0.7159 O   0  0  0  0  0  0  0  0  0  0  0  0
    1.5850   -1.8397    0.5847 O   0  0  0  0  0  0  0  0  0  0  0  0
   -2.1146    0.2020    0.3007 N   0  0  0  0  0  0  0  0  0  0  0  0
   -3.8792    1.2270    1.4060 N   0  0  0  0  0  0  0  0  0  0  0  0
   -4.3610    0.1588   -0.5490 N   0  0  0  0  0  0  0  0  0  0  0  0
   -0.1668   -0.8068   -0.7333 C   0  0  1  0  0  0  0  0  0  0  0  0
    0.1804   -1.5698    0.5382 C   0  0  0  0  0  0  0  0  0  0  0  0
   -1.6666   -0.5778   -0.8497 C   0  0  0  0  0  0  0  0  0  0  0  0
    1.7871    0.3955   -0.3445 C   0  0  0  0  0  0  0  0  0  0  0  0
    2.3295   -0.7320    0.2758 C   0  0  0  0  0  0  0  0  0  0  0  0
    2.5909    1.5065   -0.6018 C   0  0  0  0  0  0  0  0  0  0  0  0
    3.6862   -0.7668    0.5992 C   0  0  0  0  0  0  0  0  0  0  0  0
    3.9445    1.4763   -0.2654 C   0  0  0  0  0  0  0  0  0  0  0  0
    4.4925    0.3393    0.3292 C   0  0  0  0  0  0  0  0  0  0  0  0
   -3.3781    0.4956    0.3549 C   0  0  0  0  0  0  0  0  0  0  0  0
    0.1876   -1.3503   -1.6195 H   0  0  0  0  0  0  0  0  0  0  0  0
   -0.0848   -1.0169    1.4481 H   0  0  0  0  0  0  0  0  0  0  0  0
   -0.3385   -2.5338    0.5654 H   0  0  0  0  0  0  0  0  0  0  0  0
   -2.1842   -1.5432   -0.8955 H   0  0  0  0  0  0  0  0  0  0  0  0
   -1.8671   -0.0199   -1.7728 H   0  0  0  0  0  0  0  0  0  0  0  0
    2.1740    2.3926   -1.0725 H   0  0  0  0  0  0  0  0  0  0  0  0
    4.1192   -1.6447    1.0706 H   0  0  0  0  0  0  0  0  0  0  0  0
    4.5736    2.3375   -0.4707 H   0  0  0  0  0  0  0  0  0  0  0  0
    5.5475    0.3170    0.5863 H   0  0  0  0  0  0  0  0  0  0  0  0
   -3.2755    1.5488    2.1547 H   0  0  0  0  0  0  0  0  0  0  0  0
   -4.8632    1.4648    1.4653 H   0  0  0  0  0  0  0  0  0  0  0  0
   -5.3238    0.4433   -0.4041 H   0  0  0  0  0  0  0  0  0  0  0  0
   -4.1656   -0.3809   -1.3846 H   0  0  0  0  0  0  0  0  0  0  0  0
  1  6  1  0  0  0  0
  1  9  1  0  0  0  0
  2  7  1  0  0  0  0
  2 10  1  0  0  0  0
  3  8  1  0  0  0  0
  3 15  2  0  0  0  0
  4 15  1  0  0  0  0
  4 25  1  0  0  0  0
  4 26  1  0  0  0  0
  5 15  1  0  0  0  0
  5 27  1  0  0  0  0
  5 28  1  0  0  0  0
  6  7  1  0  0  0  0
  6  8  1  0  0  0  0
  6 16  1  6  0  0  0
  7 17  1  0  0  0  0
  7 18  1  0  0  0  0
  8 19  1  0  0  0  0
  8 20  1  0  0  0  0
  9 10  2  0  0  0  0
  9 11  1  0  0  0  0
 10 12  1  0  0  0  0
 11 13  2  0  0  0  0
 11 21  1  0  0  0  0
 12 14  2  0  0  0  0
 12 22  1  0  0  0  0
 13 14  1  0  0  0  0
 13 23  1  0  0  0  0
 14 24  1  0  0  0  0
M  END
