DB14631
 OpenBabel07062211533D

 59 62  0  0  1  0  0  0  0  0999 V2000
    6.5348    1.5006   -0.0012 P   0  0  0  0  0  0  0  0  0  0  0  0
    2.3797   -0.8650   -1.7223 O   0  0  0  0  0  0  0  0  0  0  0  0
   -0.6327    1.5313    1.8049 O   0  0  0  0  0  0  0  0  0  0  0  0
    3.9893   -1.7768    1.1543 O   0  0  0  0  0  0  0  0  0  0  0  0
    5.5555    0.2748    0.4080 O   0  0  0  0  0  0  0  0  0  0  0  0
   -6.2585    2.1252   -2.3398 O   0  0  0  0  0  0  0  0  0  0  0  0
    5.5889    2.8057    0.1297 O   0  0  0  0  0  0  0  0  0  0  0  0
    6.6993    1.3194   -1.5997 O   0  0  0  0  0  0  0  0  0  0  0  0
    7.8234    1.5625    0.7657 O   0  0  0  0  0  0  0  0  0  0  0  0
    1.0217   -0.6329    0.3151 C   0  0  1  0  0  0  0  0  0  0  0  0
   -0.1338   -1.4339   -0.3249 C   0  0  2  0  0  0  0  0  0  0  0  0
   -1.5214   -1.0381    0.2016 C   0  0  1  0  0  0  0  0  0  0  0  0
   -1.7659    0.4799   -0.1129 C   0  0  2  0  0  0  0  0  0  0  0  0
    2.2259   -1.3236   -0.3823 C   0  0  1  0  0  0  0  0  0  0  0  0
    0.8004    0.8537   -0.0290 C   0  0  0  0  0  0  0  0  0  0  0  0
    0.3220   -2.8842   -0.1872 C   0  0  0  0  0  0  0  0  0  0  0  0
   -0.5912    1.3758    0.3935 C   0  0  2  0  0  0  0  0  0  0  0  0
   -3.2196    0.9471    0.2947 C   0  0  1  0  0  0  0  0  0  0  0  0
    1.8497   -2.8227   -0.3931 C   0  0  0  0  0  0  0  0  0  0  0  0
   -2.6098   -1.9208   -0.4355 C   0  0  0  0  0  0  0  0  0  0  0  0
    1.1280   -0.8314    1.8527 C   0  0  0  0  0  0  0  0  0  0  0  0
   -4.0148   -1.4815   -0.0428 C   0  0  0  0  0  0  0  0  0  0  0  0
   -4.2112   -0.0212   -0.3599 C   0  0  0  0  0  0  0  0  0  0  0  0
    3.5553   -1.0564    0.2569 C   0  0  0  0  0  0  0  0  0  0  0  0
   -3.4778    0.9428    1.8183 C   0  0  0  0  0  0  0  0  0  0  0  0
   -3.4574    2.3761   -0.1719 C   0  0  0  0  0  0  0  0  0  0  0  0
   -5.1806    0.3619   -1.2055 C   0  0  0  0  0  0  0  0  0  0  0  0
    4.3210    0.1412   -0.2643 C   0  0  0  0  0  0  0  0  0  0  0  0
   -4.4194    2.7638   -1.0148 C   0  0  0  0  0  0  0  0  0  0  0  0
   -5.3602    1.7795   -1.5800 C   0  0  0  0  0  0  0  0  0  0  0  0
   -0.1462   -1.2231   -1.4074 H   0  0  0  0  0  0  0  0  0  0  0  0
   -1.5629   -1.1993    1.2836 H   0  0  0  0  0  0  0  0  0  0  0  0
   -1.7207    0.5632   -1.2126 H   0  0  0  0  0  0  0  0  0  0  0  0
    0.8974    1.0097   -1.1103 H   0  0  0  0  0  0  0  0  0  0  0  0
    1.5750    1.4618    0.4516 H   0  0  0  0  0  0  0  0  0  0  0  0
   -0.1495   -3.5351   -0.9306 H   0  0  0  0  0  0  0  0  0  0  0  0
    0.0840   -3.2870    0.8036 H   0  0  0  0  0  0  0  0  0  0  0  0
   -0.6999    2.3792   -0.0329 H   0  0  0  0  0  0  0  0  0  0  0  0
    2.3356   -3.4022    0.3991 H   0  0  0  0  0  0  0  0  0  0  0  0
    2.1112   -3.2960   -1.3466 H   0  0  0  0  0  0  0  0  0  0  0  0
   -2.4712   -2.9651   -0.1311 H   0  0  0  0  0  0  0  0  0  0  0  0
   -2.5149   -1.8964   -1.5293 H   0  0  0  0  0  0  0  0  0  0  0  0
    1.8785   -0.1550    2.2776 H   0  0  0  0  0  0  0  0  0  0  0  0
    0.1906   -0.6390    2.3773 H   0  0  0  0  0  0  0  0  0  0  0  0
    1.4210   -1.8500    2.1273 H   0  0  0  0  0  0  0  0  0  0  0  0
   -4.1818   -1.6574    1.0259 H   0  0  0  0  0  0  0  0  0  0  0  0
   -4.7429   -2.1079   -0.5725 H   0  0  0  0  0  0  0  0  0  0  0  0
   -2.9883    1.7805    2.3267 H   0  0  0  0  0  0  0  0  0  0  0  0
   -4.5495    1.0395    2.0373 H   0  0  0  0  0  0  0  0  0  0  0  0
   -3.1348    0.0228    2.3009 H   0  0  0  0  0  0  0  0  0  0  0  0
   -2.8109    3.1518    0.2326 H   0  0  0  0  0  0  0  0  0  0  0  0
    2.9784   -1.4729   -2.1893 H   0  0  0  0  0  0  0  0  0  0  0  0
    0.0858    2.1352    2.0585 H   0  0  0  0  0  0  0  0  0  0  0  0
   -5.8589   -0.3530   -1.6591 H   0  0  0  0  0  0  0  0  0  0  0  0
    3.7267    1.0429   -0.1082 H   0  0  0  0  0  0  0  0  0  0  0  0
    4.5328    0.0056   -1.3273 H   0  0  0  0  0  0  0  0  0  0  0  0
   -4.5397    3.8043   -1.2933 H   0  0  0  0  0  0  0  0  0  0  0  0
    5.9850    3.6936    0.0006 H   0  0  0  0  0  0  0  0  0  0  0  0
    7.3300    1.8967   -2.0803 H   0  0  0  0  0  0  0  0  0  0  0  0
  1  5  1  0  0  0  0
  1  7  1  0  0  0  0
  1  8  1  0  0  0  0
  1  9  2  0  0  0  0
  2 14  1  0  0  0  0
  2 52  1  0  0  0  0
  3 17  1  0  0  0  0
  3 53  1  0  0  0  0
  4 24  2  0  0  0  0
  5 28  1  0  0  0  0
  6 30  2  0  0  0  0
  7 58  1  0  0  0  0
  8 59  1  0  0  0  0
 10 11  1  6  0  0  0
 10 15  1  0  0  0  0
 10 21  1  0  0  0  0
 11 12  1  1  0  0  0
 11 16  1  0  0  0  0
 11 31  1  0  0  0  0
 12 13  1  6  0  0  0
 12 20  1  0  0  0  0
 12 32  1  0  0  0  0
 13 17  1  1  0  0  0
 13 33  1  0  0  0  0
 14 10  1  1  0  0  0
 14 19  1  0  0  0  0
 14 24  1  0  0  0  0
 15 17  1  0  0  0  0
 15 34  1  0  0  0  0
 15 35  1  0  0  0  0
 16 19  1  0  0  0  0
 16 36  1  0  0  0  0
 16 37  1  0  0  0  0
 17 38  1  6  0  0  0
 18 13  1  6  0  0  0
 18 23  1  0  0  0  0
 18 25  1  0  0  0  0
 18 26  1  0  0  0  0
 19 39  1  0  0  0  0
 19 40  1  0  0  0  0
 20 22  1  0  0  0  0
 20 41  1  0  0  0  0
 20 42  1  0  0  0  0
 21 43  1  0  0  0  0
 21 44  1  0  0  0  0
 21 45  1  0  0  0  0
 22 23  1  0  0  0  0
 22 46  1  0  0  0  0
 22 47  1  0  0  0  0
 23 27  2  0  0  0  0
 24 28  1  0  0  0  0
 25 48  1  0  0  0  0
 25 49  1  0  0  0  0
 25 50  1  0  0  0  0
 26 29  2  0  0  0  0
 26 51  1  0  0  0  0
 27 30  1  0  0  0  0
 27 54  1  0  0  0  0
 28 55  1  0  0  0  0
 28 56  1  0  0  0  0
 29 30  1  0  0  0  0
 29 57  1  0  0  0  0
M  END
