DB14110
 OpenBabel07062211533D

 16 15  0  0  1  0  0  0  0  0999 V2000
   -0.9059    1.5532    0.5249 O   0  0  0  0  0  0  0  0  0  0  0  0
    2.8051   -0.5006    0.3436 O   0  0  0  0  0  0  0  0  0  0  0  0
   -0.8231    0.3435   -0.2237 C   0  0  1  0  0  0  0  0  0  0  0  0
    0.4139   -0.4510    0.1988 C   0  0  0  0  0  0  0  0  0  0  0  0
    1.7094    0.3101   -0.0595 C   0  0  0  0  0  0  0  0  0  0  0  0
   -2.1014   -0.4544   -0.0064 C   0  0  0  0  0  0  0  0  0  0  0  0
   -0.7543    0.6104   -1.2848 H   0  0  0  0  0  0  0  0  0  0  0  0
    0.3617   -0.6885    1.2694 H   0  0  0  0  0  0  0  0  0  0  0  0
    0.4437   -1.4128   -0.3279 H   0  0  0  0  0  0  0  0  0  0  0  0
    1.8268    0.5559   -1.1196 H   0  0  0  0  0  0  0  0  0  0  0  0
    1.7556    1.2362    0.5201 H   0  0  0  0  0  0  0  0  0  0  0  0
   -2.9747    0.1364   -0.3034 H   0  0  0  0  0  0  0  0  0  0  0  0
   -2.2341   -0.7002    1.0531 H   0  0  0  0  0  0  0  0  0  0  0  0
   -2.0949   -1.3833   -0.5848 H   0  0  0  0  0  0  0  0  0  0  0  0
   -0.2152    2.1535    0.1973 H   0  0  0  0  0  0  0  0  0  0  0  0
    2.7873   -1.3084   -0.1972 H   0  0  0  0  0  0  0  0  0  0  0  0
  1  3  1  0  0  0  0
  1 15  1  0  0  0  0
  2  5  1  0  0  0  0
  2 16  1  0  0  0  0
  3  4  1  0  0  0  0
  3  6  1  0  0  0  0
  3  7  1  6  0  0  0
  4  5  1  0  0  0  0
  4  8  1  0  0  0  0
  4  9  1  0  0  0  0
  5 10  1  0  0  0  0
  5 11  1  0  0  0  0
  6 12  1  0  0  0  0
  6 13  1  0  0  0  0
  6 14  1  0  0  0  0
M  END
