DB14643
 OpenBabel07062211533D

 70 73  0  0  1  0  0  0  0  0999 V2000
   -2.2700    1.1065   -0.4897 O   0  0  0  0  0  0  0  0  0  0  0  0
    1.1008   -2.7526    0.5181 O   0  0  0  0  0  0  0  0  0  0  0  0
   -3.8788    0.3313    2.2347 O   0  0  0  0  0  0  0  0  0  0  0  0
   -5.0722   -1.3755    0.4283 O   0  0  0  0  0  0  0  0  0  0  0  0
    6.2023   -0.2830   -3.5723 O   0  0  0  0  0  0  0  0  0  0  0  0
   -4.0186    2.3700    0.3286 O   0  0  0  0  0  0  0  0  0  0  0  0
   -4.9291   -3.2375   -0.9319 O   0  0  0  0  0  0  0  0  0  0  0  0
   -0.7107   -0.2501    0.8435 C   0  0  1  0  0  0  0  0  0  0  0  0
    0.3701    0.8502    0.7579 C   0  0  2  0  0  0  0  0  0  0  0  0
    1.8060    0.3060    0.8124 C   0  0  1  0  0  0  0  0  0  0  0  0
    2.0242   -0.6618   -0.4001 C   0  0  2  0  0  0  0  0  0  0  0  0
   -1.9826    0.6415    0.8261 C   0  0  1  0  0  0  0  0  0  0  0  0
   -0.5189   -1.1817   -0.3697 C   0  0  0  0  0  0  0  0  0  0  0  0
    0.9116   -1.7558   -0.4763 C   0  0  2  0  0  0  0  0  0  0  0  0
   -0.0757    1.8659    1.8067 C   0  0  0  0  0  0  0  0  0  0  0  0
    3.5144   -1.1794   -0.4879 C   0  0  1  0  0  0  0  0  0  0  0  0
   -1.6162    1.8434    1.7261 C   0  0  0  0  0  0  0  0  0  0  0  0
    2.8207    1.4630    0.7926 C   0  0  0  0  0  0  0  0  0  0  0  0
    4.2732    0.9720    0.7299 C   0  0  1  0  0  0  0  0  0  0  0  0
   -0.6606   -1.0580    2.1701 C   0  0  0  0  0  0  0  0  0  0  0  0
    4.4360    0.0574   -0.4813 C   0  0  0  0  0  0  0  0  0  0  0  0
   -3.2392   -0.0533    1.2569 C   0  0  0  0  0  0  0  0  0  0  0  0
    3.9298   -2.1048    0.6793 C   0  0  0  0  0  0  0  0  0  0  0  0
    3.6931   -2.0052   -1.7543 C   0  0  0  0  0  0  0  0  0  0  0  0
    5.2173    2.1803    0.8031 C   0  0  0  0  0  0  0  0  0  0  0  0
    5.2910    0.3249   -1.4841 C   0  0  0  0  0  0  0  0  0  0  0  0
   -3.6666   -1.2433    0.4244 C   0  0  0  0  0  0  0  0  0  0  0  0
    4.5435   -1.7310   -2.7467 C   0  0  0  0  0  0  0  0  0  0  0  0
    5.4096   -0.5442   -2.6735 C   0  0  0  0  0  0  0  0  0  0  0  0
   -3.3234    1.9742   -0.5969 C   0  0  0  0  0  0  0  0  0  0  0  0
   -3.4937    2.3694   -2.0451 C   0  0  0  0  0  0  0  0  0  0  0  0
   -4.6608    3.3204   -2.2447 C   0  0  0  0  0  0  0  0  0  0  0  0
   -5.5835   -2.4232   -0.2950 C   0  0  0  0  0  0  0  0  0  0  0  0
   -7.0790   -2.4388   -0.1995 C   0  0  0  0  0  0  0  0  0  0  0  0
    0.2730    1.3595   -0.2155 H   0  0  0  0  0  0  0  0  0  0  0  0
    1.9616   -0.2332    1.7511 H   0  0  0  0  0  0  0  0  0  0  0  0
    1.8663   -0.0456   -1.3020 H   0  0  0  0  0  0  0  0  0  0  0  0
   -0.7287   -0.6400   -1.3001 H   0  0  0  0  0  0  0  0  0  0  0  0
   -1.2187   -2.0215   -0.3213 H   0  0  0  0  0  0  0  0  0  0  0  0
    0.9717   -2.2709   -1.4407 H   0  0  0  0  0  0  0  0  0  0  0  0
    0.3178    2.8667    1.6015 H   0  0  0  0  0  0  0  0  0  0  0  0
    0.2583    1.5762    2.8096 H   0  0  0  0  0  0  0  0  0  0  0  0
   -2.0099    1.7590    2.7450 H   0  0  0  0  0  0  0  0  0  0  0  0
   -1.9348    2.8152    1.3385 H   0  0  0  0  0  0  0  0  0  0  0  0
    2.6892    2.0744    1.6941 H   0  0  0  0  0  0  0  0  0  0  0  0
    2.6153    2.1198   -0.0640 H   0  0  0  0  0  0  0  0  0  0  0  0
    4.4805    0.3803    1.6303 H   0  0  0  0  0  0  0  0  0  0  0  0
   -1.2255   -1.9923    2.0860 H   0  0  0  0  0  0  0  0  0  0  0  0
    0.3460   -1.3138    2.4975 H   0  0  0  0  0  0  0  0  0  0  0  0
   -1.0986   -0.5030    3.0074 H   0  0  0  0  0  0  0  0  0  0  0  0
    3.5135   -3.1138    0.5843 H   0  0  0  0  0  0  0  0  0  0  0  0
    5.0203   -2.2323    0.7077 H   0  0  0  0  0  0  0  0  0  0  0  0
    3.6315   -1.7169    1.6574 H   0  0  0  0  0  0  0  0  0  0  0  0
    3.0975   -2.9103   -1.8523 H   0  0  0  0  0  0  0  0  0  0  0  0
    1.4827   -2.3491    1.3109 H   0  0  0  0  0  0  0  0  0  0  0  0
    5.0508    2.7405    1.7302 H   0  0  0  0  0  0  0  0  0  0  0  0
    6.2657    1.8633    0.7996 H   0  0  0  0  0  0  0  0  0  0  0  0
    5.0591    2.8716   -0.0321 H   0  0  0  0  0  0  0  0  0  0  0  0
    5.9321    1.1987   -1.4862 H   0  0  0  0  0  0  0  0  0  0  0  0
   -3.2144   -2.1421    0.8542 H   0  0  0  0  0  0  0  0  0  0  0  0
   -3.3415   -1.1152   -0.6118 H   0  0  0  0  0  0  0  0  0  0  0  0
    4.6245   -2.3734   -3.6156 H   0  0  0  0  0  0  0  0  0  0  0  0
   -2.5700    2.8510   -2.3830 H   0  0  0  0  0  0  0  0  0  0  0  0
   -3.6616    1.4612   -2.6335 H   0  0  0  0  0  0  0  0  0  0  0  0
   -4.5191    4.2424   -1.6710 H   0  0  0  0  0  0  0  0  0  0  0  0
   -4.7594    3.5865   -3.3016 H   0  0  0  0  0  0  0  0  0  0  0  0
   -5.6005    2.8635   -1.9171 H   0  0  0  0  0  0  0  0  0  0  0  0
   -7.3817   -2.5663    0.8427 H   0  0  0  0  0  0  0  0  0  0  0  0
   -7.4714   -3.2770   -0.7821 H   0  0  0  0  0  0  0  0  0  0  0  0
   -7.4853   -1.5100   -0.6078 H   0  0  0  0  0  0  0  0  0  0  0  0
  1 12  1  0  0  0  0
  1 30  1  0  0  0  0
  2 14  1  0  0  0  0
  2 55  1  0  0  0  0
  3 22  2  0  0  0  0
  4 27  1  0  0  0  0
  4 33  1  0  0  0  0
  5 29  2  0  0  0  0
  6 30  2  0  0  0  0
  7 33  2  0  0  0  0
  8  9  1  1  0  0  0
  8 13  1  0  0  0  0
  8 20  1  0  0  0  0
  9 10  1  1  0  0  0
  9 15  1  0  0  0  0
  9 35  1  0  0  0  0
 10 11  1  6  0  0  0
 10 18  1  0  0  0  0
 10 36  1  0  0  0  0
 11 14  1  1  0  0  0
 11 37  1  0  0  0  0
 12  8  1  6  0  0  0
 12 17  1  0  0  0  0
 12 22  1  0  0  0  0
 13 14  1  0  0  0  0
 13 38  1  0  0  0  0
 13 39  1  0  0  0  0
 14 40  1  6  0  0  0
 15 17  1  0  0  0  0
 15 41  1  0  0  0  0
 15 42  1  0  0  0  0
 16 11  1  1  0  0  0
 16 21  1  0  0  0  0
 16 23  1  0  0  0  0
 16 24  1  0  0  0  0
 17 43  1  0  0  0  0
 17 44  1  0  0  0  0
 18 19  1  0  0  0  0
 18 45  1  0  0  0  0
 18 46  1  0  0  0  0
 19 21  1  0  0  0  0
 19 25  1  0  0  0  0
 19 47  1  1  0  0  0
 20 48  1  0  0  0  0
 20 49  1  0  0  0  0
 20 50  1  0  0  0  0
 21 26  2  0  0  0  0
 22 27  1  0  0  0  0
 23 51  1  0  0  0  0
 23 52  1  0  0  0  0
 23 53  1  0  0  0  0
 24 28  2  0  0  0  0
 24 54  1  0  0  0  0
 25 56  1  0  0  0  0
 25 57  1  0  0  0  0
 25 58  1  0  0  0  0
 26 29  1  0  0  0  0
 26 59  1  0  0  0  0
 27 60  1  0  0  0  0
 27 61  1  0  0  0  0
 28 29  1  0  0  0  0
 28 62  1  0  0  0  0
 30 31  1  0  0  0  0
 31 32  1  0  0  0  0
 31 63  1  0  0  0  0
 31 64  1  0  0  0  0
 32 65  1  0  0  0  0
 32 66  1  0  0  0  0
 32 67  1  0  0  0  0
 33 34  1  0  0  0  0
 34 68  1  0  0  0  0
 34 69  1  0  0  0  0
 34 70  1  0  0  0  0
M  END
