DB14638
 OpenBabel07062211533D

 32 33  0  0  0  0  0  0  0  0999 V2000
    6.0574   -1.7645   -1.4371 Cl  0  0  0  0  0  0  0  0  0  0  0  0
    6.4034   -1.2746    1.4163 Cl  0  0  0  0  0  0  0  0  0  0  0  0
   -2.2797   -0.1956    0.6040 O   0  0  0  0  0  0  0  0  0  0  0  0
   -5.2806    0.3122   -1.3246 O   0  0  0  0  0  0  0  0  0  0  0  0
    3.6347   -2.0600    0.4515 O   0  0  0  0  0  0  0  0  0  0  0  0
   -2.5320    0.4998   -1.5967 O   0  0  0  0  0  0  0  0  0  0  0  0
    3.2176    0.2017   -0.0108 N   0  0  0  0  0  0  0  0  0  0  0  0
    1.8347    0.1011    0.1442 C   0  0  0  0  0  0  0  0  0  0  0  0
    1.1852   -1.0979   -0.1484 C   0  0  0  0  0  0  0  0  0  0  0  0
    1.1018    1.2009    0.5906 C   0  0  0  0  0  0  0  0  0  0  0  0
   -0.9308   -0.0978    0.4519 C   0  0  0  0  0  0  0  0  0  0  0  0
   -0.1975   -1.1974    0.0052 C   0  0  0  0  0  0  0  0  0  0  0  0
   -0.2810    1.1013    0.7444 C   0  0  0  0  0  0  0  0  0  0  0  0
    3.8665    1.5026   -0.3621 C   0  0  0  0  0  0  0  0  0  0  0  0
    4.0733   -0.9422    0.1612 C   0  0  0  0  0  0  0  0  0  0  0  0
    5.5653   -0.7555   -0.0550 C   0  0  0  0  0  0  0  0  0  0  0  0
   -4.4758    0.0131   -0.2957 C   0  0  0  0  0  0  0  0  0  0  0  0
   -3.0375    0.1426   -0.5369 C   0  0  0  0  0  0  0  0  0  0  0  0
   -5.1425   -0.3659    0.8138 C   0  0  0  0  0  0  0  0  0  0  0  0
   -6.5099   -0.3011    0.4543 C   0  0  0  0  0  0  0  0  0  0  0  0
   -6.5409    0.1162   -0.8559 C   0  0  0  0  0  0  0  0  0  0  0  0
    1.6832   -1.9597   -0.5785 H   0  0  0  0  0  0  0  0  0  0  0  0
    1.5753    2.1403    0.8604 H   0  0  0  0  0  0  0  0  0  0  0  0
   -0.7008   -2.1286   -0.2408 H   0  0  0  0  0  0  0  0  0  0  0  0
   -0.8456    1.9589    1.1004 H   0  0  0  0  0  0  0  0  0  0  0  0
    4.4980    1.3628   -1.2444 H   0  0  0  0  0  0  0  0  0  0  0  0
    4.4618    1.8419    0.4902 H   0  0  0  0  0  0  0  0  0  0  0  0
    3.1290    2.2634   -0.6290 H   0  0  0  0  0  0  0  0  0  0  0  0
    5.9019    0.2562   -0.2554 H   0  0  0  0  0  0  0  0  0  0  0  0
   -4.7321   -0.6564    1.7702 H   0  0  0  0  0  0  0  0  0  0  0  0
   -7.3658   -0.5300    1.0727 H   0  0  0  0  0  0  0  0  0  0  0  0
   -7.3369    0.3118   -1.5596 H   0  0  0  0  0  0  0  0  0  0  0  0
  1 16  1  0  0  0  0
  2 16  1  0  0  0  0
  3 11  1  0  0  0  0
  3 18  1  0  0  0  0
  4 17  1  0  0  0  0
  4 21  1  0  0  0  0
  5 15  2  0  0  0  0
  6 18  2  0  0  0  0
  7  8  1  0  0  0  0
  7 14  1  0  0  0  0
  7 15  1  0  0  0  0
  8  9  2  0  0  0  0
  8 10  1  0  0  0  0
  9 12  1  0  0  0  0
  9 22  1  0  0  0  0
 10 13  2  0  0  0  0
 10 23  1  0  0  0  0
 11 12  2  0  0  0  0
 11 13  1  0  0  0  0
 12 24  1  0  0  0  0
 13 25  1  0  0  0  0
 14 26  1  0  0  0  0
 14 27  1  0  0  0  0
 14 28  1  0  0  0  0
 15 16  1  0  0  0  0
 16 29  1  0  0  0  0
 17 18  1  0  0  0  0
 17 19  2  0  0  0  0
 19 20  1  0  0  0  0
 19 30  1  0  0  0  0
 20 21  2  0  0  0  0
 20 31  1  0  0  0  0
 21 32  1  0  0  0  0
M  END
