DB14723
 OpenBabel07062211533D

 53 57  0  0  1  0  0  0  0  0999 V2000
    0.6377   -2.8228    1.3657 F   0  0  0  0  0  0  0  0  0  0  0  0
    2.2000   -1.9599   -3.8044 F   0  0  0  0  0  0  0  0  0  0  0  0
   -5.0695   -1.3855    2.1510 O   0  0  0  0  0  0  0  0  0  0  0  0
   -3.9163    2.8244   -0.4878 O   0  0  0  0  0  0  0  0  0  0  0  0
    3.2225    0.3857    0.5308 N   0  0  2  0  0  0  0  0  0  0  0  0
   -4.0699    0.5977    0.0490 N   0  0  0  0  0  0  0  0  0  0  0  0
    1.1446    1.3198    0.1992 N   0  0  0  0  0  0  0  0  0  0  0  0
    0.9827    3.6571   -0.3400 N   0  0  0  0  0  0  0  0  0  0  0  0
   -1.9673    1.6198   -0.0466 N   0  0  0  0  0  0  0  0  0  0  0  0
    0.0488    4.6066   -0.6082 N   0  0  0  0  0  0  0  0  0  0  0  0
    2.7041   -0.9212    0.9458 C   0  0  2  0  0  0  0  0  0  0  0  0
    3.9402   -1.6454    1.5022 C   0  0  0  0  0  0  0  0  0  0  0  0
    5.1047   -1.0166    0.7501 C   0  0  0  0  0  0  0  0  0  0  0  0
    4.6784    0.4390    0.6017 C   0  0  0  0  0  0  0  0  0  0  0  0
    2.0355   -1.6859   -0.1805 C   0  0  0  0  0  0  0  0  0  0  0  0
    2.4513    1.4549    0.2435 C   0  0  2  0  0  0  0  0  0  0  0  0
   -4.7680   -1.5461    0.7690 C   0  0  1  0  0  0  0  0  0  0  0  0
   -5.8668   -0.9224   -0.0837 C   0  0  0  0  0  0  0  0  0  0  0  0
   -3.5374   -0.7142    0.4276 C   0  0  0  0  0  0  0  0  0  0  0  0
   -5.5220    0.5602   -0.0554 C   0  0  0  0  0  0  0  0  0  0  0  0
    1.0257   -2.6061    0.1009 C   0  0  0  0  0  0  0  0  0  0  0  0
    2.4322   -1.4677   -1.4998 C   0  0  0  0  0  0  0  0  0  0  0  0
    3.1451    2.7655   -0.0150 C   0  0  0  0  0  0  0  0  0  0  0  0
   -3.3473    1.7741   -0.1844 C   0  0  0  0  0  0  0  0  0  0  0  0
    0.3968    2.4195   -0.0932 C   0  0  0  0  0  0  0  0  0  0  0  0
   -0.9621    2.6040   -0.2128 C   0  0  0  0  0  0  0  0  0  0  0  0
    2.3613    3.8099   -0.2963 C   0  0  0  0  0  0  0  0  0  0  0  0
    1.8190   -2.1695   -2.5377 C   0  0  0  0  0  0  0  0  0  0  0  0
    0.4127   -3.3081   -0.9369 C   0  0  0  0  0  0  0  0  0  0  0  0
    0.8094   -3.0898   -2.2562 C   0  0  0  0  0  0  0  0  0  0  0  0
   -1.1139    3.9608   -0.5284 C   0  0  0  0  0  0  0  0  0  0  0  0
    1.9803   -0.7809    1.7594 H   0  0  0  0  0  0  0  0  0  0  0  0
    4.0451   -1.4185    2.5709 H   0  0  0  0  0  0  0  0  0  0  0  0
    3.9085   -2.7338    1.3919 H   0  0  0  0  0  0  0  0  0  0  0  0
    5.2146   -1.4844   -0.2351 H   0  0  0  0  0  0  0  0  0  0  0  0
    6.0557   -1.1202    1.2802 H   0  0  0  0  0  0  0  0  0  0  0  0
    4.9935    1.0173    1.4778 H   0  0  0  0  0  0  0  0  0  0  0  0
    5.1322    0.8621   -0.3007 H   0  0  0  0  0  0  0  0  0  0  0  0
   -4.6310   -2.6126    0.5694 H   0  0  0  0  0  0  0  0  0  0  0  0
   -5.7982   -1.2977   -1.1115 H   0  0  0  0  0  0  0  0  0  0  0  0
   -6.8749   -1.1074    0.2982 H   0  0  0  0  0  0  0  0  0  0  0  0
   -3.0123   -1.1137   -0.4466 H   0  0  0  0  0  0  0  0  0  0  0  0
   -2.8412   -0.6099    1.2651 H   0  0  0  0  0  0  0  0  0  0  0  0
   -5.9326    1.0537    0.8325 H   0  0  0  0  0  0  0  0  0  0  0  0
   -5.8649    1.0953   -0.9459 H   0  0  0  0  0  0  0  0  0  0  0  0
    3.2211   -0.7673   -1.7567 H   0  0  0  0  0  0  0  0  0  0  0  0
    4.2190    2.8746    0.0307 H   0  0  0  0  0  0  0  0  0  0  0  0
    2.7583    4.7981   -0.4948 H   0  0  0  0  0  0  0  0  0  0  0  0
   -1.5987    0.7013    0.1782 H   0  0  0  0  0  0  0  0  0  0  0  0
   -4.3278   -1.7595    2.6566 H   0  0  0  0  0  0  0  0  0  0  0  0
   -0.3739   -4.0240   -0.7174 H   0  0  0  0  0  0  0  0  0  0  0  0
    0.3321   -3.6360   -3.0645 H   0  0  0  0  0  0  0  0  0  0  0  0
   -2.0173    4.5254   -0.7070 H   0  0  0  0  0  0  0  0  0  0  0  0
  1 21  1  0  0  0  0
  2 28  1  0  0  0  0
  3 17  1  0  0  0  0
  3 50  1  0  0  0  0
  4 24  2  0  0  0  0
  5 11  1  1  0  0  0
  5 14  1  0  0  0  0
  5 16  1  0  0  0  0
  6 19  1  0  0  0  0
  6 20  1  0  0  0  0
  6 24  1  0  0  0  0
  7 25  2  0  0  0  0
  8 10  2  0  0  0  0
  8 25  1  0  0  0  0
  8 27  1  0  0  0  0
  9 24  1  0  0  0  0
  9 26  1  0  0  0  0
  9 49  1  0  0  0  0
 10 31  1  0  0  0  0
 11 12  1  0  0  0  0
 11 15  1  0  0  0  0
 11 32  1  1  0  0  0
 12 13  1  0  0  0  0
 12 33  1  0  0  0  0
 12 34  1  0  0  0  0
 13 14  1  0  0  0  0
 13 35  1  0  0  0  0
 13 36  1  0  0  0  0
 14 37  1  0  0  0  0
 14 38  1  0  0  0  0
 15 21  2  0  0  0  0
 15 22  1  0  0  0  0
 16  7  1  6  0  0  0
 16 23  1  0  0  0  0
 17 18  1  0  0  0  0
 17 19  1  0  0  0  0
 17 39  1  6  0  0  0
 18 20  1  0  0  0  0
 18 40  1  0  0  0  0
 18 41  1  0  0  0  0
 19 42  1  0  0  0  0
 19 43  1  0  0  0  0
 20 44  1  0  0  0  0
 20 45  1  0  0  0  0
 21 29  1  0  0  0  0
 22 28  2  0  0  0  0
 22 46  1  0  0  0  0
 23 27  2  0  0  0  0
 23 47  1  0  0  0  0
 25 26  1  0  0  0  0
 26 31  2  0  0  0  0
 27 48  1  0  0  0  0
 28 30  1  0  0  0  0
 29 30  2  0  0  0  0
 29 51  1  0  0  0  0
 30 52  1  0  0  0  0
 31 53  1  0  0  0  0
M  END
