DB14219
 OpenBabel07062211533D

 15 14  0  0  0  0  0  0  0  0999 V2000
   -1.9259   -0.6233    0.0009 O   0  0  0  0  0  0  0  0  0  0  0  0
   -1.0901    1.5308    0.0022 O   0  0  0  0  0  0  0  0  0  0  0  0
    3.8301    0.6222   -0.0015 O   0  0  0  0  0  0  0  0  0  0  0  0
    3.0107   -1.5002   -0.0004 O   0  0  0  0  0  0  0  0  0  0  0  0
    0.3561   -0.3896    0.0023 C   0  0  0  0  0  0  0  0  0  0  0  0
   -0.9440    0.3186    0.0026 C   0  0  0  0  0  0  0  0  0  0  0  0
    1.4901    0.3219    0.0008 C   0  0  0  0  0  0  0  0  0  0  0  0
   -3.2645   -0.1163   -0.0013 C   0  0  0  0  0  0  0  0  0  0  0  0
    2.8341   -0.2906   -0.0009 C   0  0  0  0  0  0  0  0  0  0  0  0
    0.3573   -1.4740    0.0027 H   0  0  0  0  0  0  0  0  0  0  0  0
    1.4683    1.4083    0.0003 H   0  0  0  0  0  0  0  0  0  0  0  0
   -3.4421    0.4795   -0.9018 H   0  0  0  0  0  0  0  0  0  0  0  0
   -3.4452    0.4797    0.8985 H   0  0  0  0  0  0  0  0  0  0  0  0
   -3.9506   -0.9675   -0.0024 H   0  0  0  0  0  0  0  0  0  0  0  0
    4.7159    0.2005   -0.0020 H   0  0  0  0  0  0  0  0  0  0  0  0
  1  6  1  0  0  0  0
  1  8  1  0  0  0  0
  2  6  2  0  0  0  0
  3  9  1  0  0  0  0
  3 15  1  0  0  0  0
  4  9  2  0  0  0  0
  5  6  1  0  0  0  0
  5  7  2  0  0  0  0
  5 10  1  0  0  0  0
  7  9  1  0  0  0  0
  7 11  1  0  0  0  0
  8 12  1  0  0  0  0
  8 13  1  0  0  0  0
  8 14  1  0  0  0  0
M  END
