DB14539
 OpenBabel07062211533D

 61 64  0  0  1  0  0  0  0  0999 V2000
   -2.5076   -1.0540    1.8628 O   0  0  0  0  0  0  0  0  0  0  0  0
    0.4597    1.5937   -1.5122 O   0  0  0  0  0  0  0  0  0  0  0  0
   -4.4938   -1.7951   -0.6260 O   0  0  0  0  0  0  0  0  0  0  0  0
   -5.5212    0.6461    0.1392 O   0  0  0  0  0  0  0  0  0  0  0  0
    6.6847    1.5683    1.8100 O   0  0  0  0  0  0  0  0  0  0  0  0
   -5.2862    2.9403    0.2766 O   0  0  0  0  0  0  0  0  0  0  0  0
   -1.2159   -0.6587   -0.1916 C   0  0  1  0  0  0  0  0  0  0  0  0
   -0.0738   -1.5683    0.3112 C   0  0  2  0  0  0  0  0  0  0  0  0
    1.3092   -1.1743   -0.2290 C   0  0  1  0  0  0  0  0  0  0  0  0
    1.6280    0.2886    0.2208 C   0  0  1  0  0  0  0  0  0  0  0  0
   -2.4238   -1.3715    0.4767 C   0  0  1  0  0  0  0  0  0  0  0  0
   -0.9181    0.7724    0.3010 C   0  0  0  0  0  0  0  0  0  0  0  0
    3.0825    0.7578   -0.1935 C   0  0  2  0  0  0  0  0  0  0  0  0
    0.4761    1.2827   -0.1262 C   0  0  2  0  0  0  0  0  0  0  0  0
   -0.5975   -2.9763    0.0406 C   0  0  0  0  0  0  0  0  0  0  0  0
   -2.1124   -2.8773    0.3163 C   0  0  0  0  0  0  0  0  0  0  0  0
    2.3827   -2.1405    0.2964 C   0  0  0  0  0  0  0  0  0  0  0  0
   -1.3861   -0.6848   -1.7359 C   0  0  0  0  0  0  0  0  0  0  0  0
    4.0982   -0.3090    0.2376 C   0  0  0  0  0  0  0  0  0  0  0  0
    3.7785   -1.7322   -0.1495 C   0  0  0  0  0  0  0  0  0  0  0  0
    3.3810    2.1011    0.5342 C   0  0  0  0  0  0  0  0  0  0  0  0
    3.2561    0.9626   -1.7155 C   0  0  0  0  0  0  0  0  0  0  0  0
   -3.7532   -0.9712   -0.0914 C   0  0  0  0  0  0  0  0  0  0  0  0
    4.8562    2.4683    0.5524 C   0  0  0  0  0  0  0  0  0  0  0  0
    5.2413   -0.0411    0.8906 C   0  0  0  0  0  0  0  0  0  0  0  0
    5.6620    1.3524    1.1632 C   0  0  0  0  0  0  0  0  0  0  0  0
   -4.1219    0.4919    0.0320 C   0  0  0  0  0  0  0  0  0  0  0  0
   -5.9809    1.9332    0.2572 C   0  0  0  0  0  0  0  0  0  0  0  0
   -7.4759    1.9428    0.3607 C   0  0  0  0  0  0  0  0  0  0  0  0
   -0.0123   -1.4750    1.4083 H   0  0  0  0  0  0  0  0  0  0  0  0
    1.3133   -1.2358   -1.3219 H   0  0  0  0  0  0  0  0  0  0  0  0
    1.6334    0.2496    1.3234 H   0  0  0  0  0  0  0  0  0  0  0  0
   -0.9633    0.8124    1.3960 H   0  0  0  0  0  0  0  0  0  0  0  0
   -1.6685    1.4728   -0.0764 H   0  0  0  0  0  0  0  0  0  0  0  0
    0.6533    2.2268    0.4011 H   0  0  0  0  0  0  0  0  0  0  0  0
   -0.1273   -3.7218    0.6900 H   0  0  0  0  0  0  0  0  0  0  0  0
   -0.4152   -3.2785   -0.9969 H   0  0  0  0  0  0  0  0  0  0  0  0
   -2.6470   -3.3486   -0.5154 H   0  0  0  0  0  0  0  0  0  0  0  0
   -2.3605   -3.4377    1.2250 H   0  0  0  0  0  0  0  0  0  0  0  0
    2.1833   -3.1561   -0.0648 H   0  0  0  0  0  0  0  0  0  0  0  0
    2.3472   -2.1820    1.3931 H   0  0  0  0  0  0  0  0  0  0  0  0
   -1.7782   -1.6412   -2.0981 H   0  0  0  0  0  0  0  0  0  0  0  0
   -2.0802    0.0915   -2.0728 H   0  0  0  0  0  0  0  0  0  0  0  0
   -0.4492   -0.5215   -2.2719 H   0  0  0  0  0  0  0  0  0  0  0  0
    3.8611   -1.8341   -1.2386 H   0  0  0  0  0  0  0  0  0  0  0  0
    4.5040   -2.4345    0.2793 H   0  0  0  0  0  0  0  0  0  0  0  0
    3.0362    2.0378    1.5759 H   0  0  0  0  0  0  0  0  0  0  0  0
    2.8210    2.9235    0.0728 H   0  0  0  0  0  0  0  0  0  0  0  0
    2.8282    0.1395   -2.2961 H   0  0  0  0  0  0  0  0  0  0  0  0
    2.7910    1.8916   -2.0591 H   0  0  0  0  0  0  0  0  0  0  0  0
    4.3151    1.0308   -1.9941 H   0  0  0  0  0  0  0  0  0  0  0  0
   -3.1786   -1.6301    2.2673 H   0  0  0  0  0  0  0  0  0  0  0  0
    4.9949    3.3702    1.1588 H   0  0  0  0  0  0  0  0  0  0  0  0
    5.2387    2.6708   -0.4529 H   0  0  0  0  0  0  0  0  0  0  0  0
   -0.2364    2.2561   -1.6603 H   0  0  0  0  0  0  0  0  0  0  0  0
    5.9296   -0.8252    1.1878 H   0  0  0  0  0  0  0  0  0  0  0  0
   -3.7667    1.0162   -0.8595 H   0  0  0  0  0  0  0  0  0  0  0  0
   -3.6671    0.9171    0.9311 H   0  0  0  0  0  0  0  0  0  0  0  0
   -7.7888    1.3859    1.2473 H   0  0  0  0  0  0  0  0  0  0  0  0
   -7.9120    1.5072   -0.5417 H   0  0  0  0  0  0  0  0  0  0  0  0
   -7.8267    2.9746    0.4549 H   0  0  0  0  0  0  0  0  0  0  0  0
  1 11  1  0  0  0  0
  1 52  1  0  0  0  0
  2 14  1  0  0  0  0
  2 55  1  0  0  0  0
  3 23  2  0  0  0  0
  4 27  1  0  0  0  0
  4 28  1  0  0  0  0
  5 26  2  0  0  0  0
  6 28  2  0  0  0  0
  7  8  1  1  0  0  0
  7 12  1  0  0  0  0
  7 18  1  0  0  0  0
  8  9  1  6  0  0  0
  8 15  1  0  0  0  0
  8 30  1  0  0  0  0
  9 10  1  1  0  0  0
  9 17  1  0  0  0  0
  9 31  1  0  0  0  0
 10 13  1  6  0  0  0
 10 32  1  0  0  0  0
 11  7  1  6  0  0  0
 11 16  1  0  0  0  0
 11 23  1  0  0  0  0
 12 14  1  0  0  0  0
 12 33  1  0  0  0  0
 12 34  1  0  0  0  0
 13 19  1  0  0  0  0
 13 21  1  0  0  0  0
 13 22  1  6  0  0  0
 14 10  1  1  0  0  0
 14 35  1  0  0  0  0
 15 16  1  0  0  0  0
 15 36  1  0  0  0  0
 15 37  1  0  0  0  0
 16 38  1  0  0  0  0
 16 39  1  0  0  0  0
 17 20  1  0  0  0  0
 17 40  1  0  0  0  0
 17 41  1  0  0  0  0
 18 42  1  0  0  0  0
 18 43  1  0  0  0  0
 18 44  1  0  0  0  0
 19 20  1  0  0  0  0
 19 25  2  0  0  0  0
 20 45  1  0  0  0  0
 20 46  1  0  0  0  0
 21 24  1  0  0  0  0
 21 47  1  0  0  0  0
 21 48  1  0  0  0  0
 22 49  1  0  0  0  0
 22 50  1  0  0  0  0
 22 51  1  0  0  0  0
 23 27  1  0  0  0  0
 24 26  1  0  0  0  0
 24 53  1  0  0  0  0
 24 54  1  0  0  0  0
 25 26  1  0  0  0  0
 25 56  1  0  0  0  0
 27 57  1  0  0  0  0
 27 58  1  0  0  0  0
 28 29  1  0  0  0  0
 29 59  1  0  0  0  0
 29 60  1  0  0  0  0
 29 61  1  0  0  0  0
M  END
