DB14543
 OpenBabel07062211533D

 75 78  0  0  1  0  0  0  0  0999 V2000
   -1.6229    1.4343   -0.3715 O   0  0  0  0  0  0  0  0  0  0  0  0
    1.7714   -2.3074    0.9262 O   0  0  0  0  0  0  0  0  0  0  0  0
   -3.1296    0.9120    2.4825 O   0  0  0  0  0  0  0  0  0  0  0  0
   -4.3630   -0.9782    0.8994 O   0  0  0  0  0  0  0  0  0  0  0  0
    7.3402   -0.5517   -3.0354 O   0  0  0  0  0  0  0  0  0  0  0  0
   -3.3685    2.7513    0.3640 O   0  0  0  0  0  0  0  0  0  0  0  0
   -4.2354   -2.9590   -0.2772 O   0  0  0  0  0  0  0  0  0  0  0  0
   -0.0177    0.2244    1.0444 C   0  0  1  0  0  0  0  0  0  0  0  0
    1.0561    1.3096    0.8128 C   0  0  2  0  0  0  0  0  0  0  0  0
    2.4948    0.7756    0.8808 C   0  0  1  0  0  0  0  0  0  0  0  0
    2.6775   -0.3218   -0.2176 C   0  0  1  0  0  0  0  0  0  0  0  0
   -1.2937    1.1080    0.9754 C   0  0  1  0  0  0  0  0  0  0  0  0
    0.1383   -0.8264   -0.0739 C   0  0  0  0  0  0  0  0  0  0  0  0
    4.1625   -0.8646   -0.3057 C   0  0  2  0  0  0  0  0  0  0  0  0
    1.5645   -1.4142   -0.1589 C   0  0  2  0  0  0  0  0  0  0  0  0
    0.6392    2.4286    1.7635 C   0  0  0  0  0  0  0  0  0  0  0  0
   -0.9032    2.3986    1.7319 C   0  0  0  0  0  0  0  0  0  0  0  0
    3.4994    1.9185    0.6659 C   0  0  0  0  0  0  0  0  0  0  0  0
    0.0772   -0.4434    2.4442 C   0  0  0  0  0  0  0  0  0  0  0  0
    5.1299    0.3245   -0.3831 C   0  0  0  0  0  0  0  0  0  0  0  0
    4.9342    1.4140    0.6425 C   0  0  0  0  0  0  0  0  0  0  0  0
    4.2826   -1.7326   -1.5921 C   0  0  0  0  0  0  0  0  0  0  0  0
    4.5836   -1.7150    0.9142 C   0  0  0  0  0  0  0  0  0  0  0  0
   -2.5217    0.4422    1.5218 C   0  0  0  0  0  0  0  0  0  0  0  0
    5.7186   -1.9915   -2.0193 C   0  0  0  0  0  0  0  0  0  0  0  0
    6.1350    0.4218   -1.2693 C   0  0  0  0  0  0  0  0  0  0  0  0
    6.4507   -0.6877   -2.1979 C   0  0  0  0  0  0  0  0  0  0  0  0
   -2.9608   -0.8289    0.8266 C   0  0  0  0  0  0  0  0  0  0  0  0
   -2.6923    2.2733   -0.5364 C   0  0  0  0  0  0  0  0  0  0  0  0
   -2.9080    2.5171   -2.0127 C   0  0  0  0  0  0  0  0  0  0  0  0
   -4.3797    2.7517   -2.3442 C   0  0  0  0  0  0  0  0  0  0  0  0
   -4.8863   -2.0998    0.3012 C   0  0  0  0  0  0  0  0  0  0  0  0
   -5.2306    1.5435   -1.9888 C   0  0  0  0  0  0  0  0  0  0  0  0
   -6.3878   -2.1095    0.4682 C   0  0  0  0  0  0  0  0  0  0  0  0
   -7.0283   -3.3190   -0.1900 C   0  0  0  0  0  0  0  0  0  0  0  0
    0.9271    1.7146   -0.2048 H   0  0  0  0  0  0  0  0  0  0  0  0
    2.6863    0.3467    1.8695 H   0  0  0  0  0  0  0  0  0  0  0  0
    2.4976    0.2018   -1.1719 H   0  0  0  0  0  0  0  0  0  0  0  0
   -0.5633   -1.6523    0.0740 H   0  0  0  0  0  0  0  0  0  0  0  0
   -0.0933   -0.3789   -1.0481 H   0  0  0  0  0  0  0  0  0  0  0  0
    1.6141   -2.0186   -1.0717 H   0  0  0  0  0  0  0  0  0  0  0  0
    1.0224    3.4027    1.4418 H   0  0  0  0  0  0  0  0  0  0  0  0
    1.0061    2.2480    2.7802 H   0  0  0  0  0  0  0  0  0  0  0  0
   -1.2389    3.3226    1.2524 H   0  0  0  0  0  0  0  0  0  0  0  0
   -1.2671    2.4215    2.7651 H   0  0  0  0  0  0  0  0  0  0  0  0
    3.2803    2.4401   -0.2751 H   0  0  0  0  0  0  0  0  0  0  0  0
    3.4026    2.6597    1.4678 H   0  0  0  0  0  0  0  0  0  0  0  0
   -0.2115    0.2361    3.2530 H   0  0  0  0  0  0  0  0  0  0  0  0
    1.0846   -0.7881    2.6858 H   0  0  0  0  0  0  0  0  0  0  0  0
   -0.5787   -1.3171    2.5133 H   0  0  0  0  0  0  0  0  0  0  0  0
    5.6025    2.2633    0.4543 H   0  0  0  0  0  0  0  0  0  0  0  0
    5.2039    1.0263    1.6326 H   0  0  0  0  0  0  0  0  0  0  0  0
    3.7784   -2.6970   -1.4563 H   0  0  0  0  0  0  0  0  0  0  0  0
    3.7691   -1.2289   -2.4233 H   0  0  0  0  0  0  0  0  0  0  0  0
    4.1488   -2.7188    0.8830 H   0  0  0  0  0  0  0  0  0  0  0  0
    5.6710   -1.8551    0.9509 H   0  0  0  0  0  0  0  0  0  0  0  0
    4.2914   -1.2531    1.8623 H   0  0  0  0  0  0  0  0  0  0  0  0
    1.0860   -2.9954    0.8801 H   0  0  0  0  0  0  0  0  0  0  0  0
    6.2579   -2.6021   -1.2885 H   0  0  0  0  0  0  0  0  0  0  0  0
    5.7185   -2.5247   -2.9764 H   0  0  0  0  0  0  0  0  0  0  0  0
    6.7921    1.2844   -1.2992 H   0  0  0  0  0  0  0  0  0  0  0  0
   -2.6807   -0.7957   -0.2299 H   0  0  0  0  0  0  0  0  0  0  0  0
   -2.4805   -1.6780    1.3207 H   0  0  0  0  0  0  0  0  0  0  0  0
   -2.5453    1.6516   -2.5796 H   0  0  0  0  0  0  0  0  0  0  0  0
   -2.3107    3.3884   -2.3005 H   0  0  0  0  0  0  0  0  0  0  0  0
   -4.7563    3.6306   -1.8084 H   0  0  0  0  0  0  0  0  0  0  0  0
   -4.4762    2.9592   -3.4159 H   0  0  0  0  0  0  0  0  0  0  0  0
   -4.8610    0.6404   -2.4855 H   0  0  0  0  0  0  0  0  0  0  0  0
   -5.2529    1.3575   -0.9111 H   0  0  0  0  0  0  0  0  0  0  0  0
   -6.2634    1.7059   -2.3142 H   0  0  0  0  0  0  0  0  0  0  0  0
   -6.7910   -1.1958    0.0187 H   0  0  0  0  0  0  0  0  0  0  0  0
   -6.6165   -2.1139    1.5391 H   0  0  0  0  0  0  0  0  0  0  0  0
   -8.1138   -3.2969   -0.0538 H   0  0  0  0  0  0  0  0  0  0  0  0
   -6.6476   -4.2501    0.2429 H   0  0  0  0  0  0  0  0  0  0  0  0
   -6.8181   -3.3390   -1.2646 H   0  0  0  0  0  0  0  0  0  0  0  0
  1 12  1  0  0  0  0
  1 29  1  0  0  0  0
  2 15  1  0  0  0  0
  2 58  1  0  0  0  0
  3 24  2  0  0  0  0
  4 28  1  0  0  0  0
  4 32  1  0  0  0  0
  5 27  2  0  0  0  0
  6 29  2  0  0  0  0
  7 32  2  0  0  0  0
  8  9  1  6  0  0  0
  8 13  1  0  0  0  0
  8 19  1  0  0  0  0
  9 10  1  1  0  0  0
  9 16  1  0  0  0  0
  9 36  1  0  0  0  0
 10 11  1  6  0  0  0
 10 18  1  0  0  0  0
 10 37  1  0  0  0  0
 11 14  1  1  0  0  0
 11 38  1  0  0  0  0
 12  8  1  1  0  0  0
 12 17  1  0  0  0  0
 12 24  1  0  0  0  0
 13 15  1  0  0  0  0
 13 39  1  0  0  0  0
 13 40  1  0  0  0  0
 14 20  1  0  0  0  0
 14 22  1  0  0  0  0
 14 23  1  1  0  0  0
 15 11  1  6  0  0  0
 15 41  1  0  0  0  0
 16 17  1  0  0  0  0
 16 42  1  0  0  0  0
 16 43  1  0  0  0  0
 17 44  1  0  0  0  0
 17 45  1  0  0  0  0
 18 21  1  0  0  0  0
 18 46  1  0  0  0  0
 18 47  1  0  0  0  0
 19 48  1  0  0  0  0
 19 49  1  0  0  0  0
 19 50  1  0  0  0  0
 20 21  1  0  0  0  0
 20 26  2  0  0  0  0
 21 51  1  0  0  0  0
 21 52  1  0  0  0  0
 22 25  1  0  0  0  0
 22 53  1  0  0  0  0
 22 54  1  0  0  0  0
 23 55  1  0  0  0  0
 23 56  1  0  0  0  0
 23 57  1  0  0  0  0
 24 28  1  0  0  0  0
 25 27  1  0  0  0  0
 25 59  1  0  0  0  0
 25 60  1  0  0  0  0
 26 27  1  0  0  0  0
 26 61  1  0  0  0  0
 28 62  1  0  0  0  0
 28 63  1  0  0  0  0
 29 30  1  0  0  0  0
 30 31  1  0  0  0  0
 30 64  1  0  0  0  0
 30 65  1  0  0  0  0
 31 33  1  0  0  0  0
 31 66  1  0  0  0  0
 31 67  1  0  0  0  0
 32 34  1  0  0  0  0
 33 68  1  0  0  0  0
 33 69  1  0  0  0  0
 33 70  1  0  0  0  0
 34 35  1  0  0  0  0
 34 71  1  0  0  0  0
 34 72  1  0  0  0  0
 35 73  1  0  0  0  0
 35 74  1  0  0  0  0
 35 75  1  0  0  0  0
M  END
