DB14195
 OpenBabel07062211533D

 35 36  0  0  0  0  0  0  0  0999 V2000
    3.2147   -0.6861   -0.1600 N   0  0  0  0  0  0  0  0  0  0  0  0
   -2.3542   -1.3503   -0.0045 N   0  0  0  0  0  0  0  0  0  0  0  0
    3.8949    0.4812    0.3992 C   0  0  0  0  0  0  0  0  0  0  0  0
    1.8494   -0.8490   -0.1220 C   0  0  0  0  0  0  0  0  0  0  0  0
    3.7902    1.6642   -0.5592 C   0  0  0  0  0  0  0  0  0  0  0  0
    5.3527    0.1324    0.6819 C   0  0  0  0  0  0  0  0  0  0  0  0
   -0.9543   -1.1832   -0.0436 C   0  0  0  0  0  0  0  0  0  0  0  0
    1.2326   -1.9925   -0.6765 C   0  0  0  0  0  0  0  0  0  0  0  0
    1.0125    0.1213    0.4728 C   0  0  0  0  0  0  0  0  0  0  0  0
   -0.1521   -2.1574   -0.6379 C   0  0  0  0  0  0  0  0  0  0  0  0
   -0.3720   -0.0437    0.5117 C   0  0  0  0  0  0  0  0  0  0  0  0
   -3.4246   -0.4349   -0.0074 C   0  0  0  0  0  0  0  0  0  0  0  0
   -4.6215   -0.7559    0.6353 C   0  0  0  0  0  0  0  0  0  0  0  0
   -3.2912    0.7956   -0.6532 C   0  0  0  0  0  0  0  0  0  0  0  0
   -5.6816    0.1505    0.6321 C   0  0  0  0  0  0  0  0  0  0  0  0
   -4.3513    1.7021   -0.6562 C   0  0  0  0  0  0  0  0  0  0  0  0
   -5.5465    1.3796   -0.0134 C   0  0  0  0  0  0  0  0  0  0  0  0
    3.4628    0.7523    1.3698 H   0  0  0  0  0  0  0  0  0  0  0  0
    3.7660   -1.3711   -0.6649 H   0  0  0  0  0  0  0  0  0  0  0  0
    4.3082    2.5384   -0.1505 H   0  0  0  0  0  0  0  0  0  0  0  0
    4.2465    1.4259   -1.5271 H   0  0  0  0  0  0  0  0  0  0  0  0
    2.7542    1.9554   -0.7536 H   0  0  0  0  0  0  0  0  0  0  0  0
    5.4225   -0.7120    1.3766 H   0  0  0  0  0  0  0  0  0  0  0  0
    5.8796    0.9824    1.1276 H   0  0  0  0  0  0  0  0  0  0  0  0
    5.8800   -0.1515   -0.2358 H   0  0  0  0  0  0  0  0  0  0  0  0
    1.8420   -2.7630   -1.1441 H   0  0  0  0  0  0  0  0  0  0  0  0
    1.4055    1.0246    0.9294 H   0  0  0  0  0  0  0  0  0  0  0  0
   -0.5943   -3.0491   -1.0749 H   0  0  0  0  0  0  0  0  0  0  0  0
   -0.9707    0.7197    1.0008 H   0  0  0  0  0  0  0  0  0  0  0  0
   -2.6478   -2.3224    0.0332 H   0  0  0  0  0  0  0  0  0  0  0  0
   -4.7391   -1.7100    1.1428 H   0  0  0  0  0  0  0  0  0  0  0  0
   -2.3803    1.0648   -1.1809 H   0  0  0  0  0  0  0  0  0  0  0  0
   -6.6123   -0.1005    1.1324 H   0  0  0  0  0  0  0  0  0  0  0  0
   -4.2483    2.6571   -1.1632 H   0  0  0  0  0  0  0  0  0  0  0  0
   -6.3724    2.0850   -0.0167 H   0  0  0  0  0  0  0  0  0  0  0  0
  1  3  1  0  0  0  0
  1  4  1  0  0  0  0
  1 19  1  0  0  0  0
  2  7  1  0  0  0  0
  2 12  1  0  0  0  0
  2 30  1  0  0  0  0
  3  5  1  0  0  0  0
  3  6  1  0  0  0  0
  3 18  1  0  0  0  0
  4  8  2  0  0  0  0
  4  9  1  0  0  0  0
  5 20  1  0  0  0  0
  5 21  1  0  0  0  0
  5 22  1  0  0  0  0
  6 23  1  0  0  0  0
  6 24  1  0  0  0  0
  6 25  1  0  0  0  0
  7 10  2  0  0  0  0
  7 11  1  0  0  0  0
  8 10  1  0  0  0  0
  8 26  1  0  0  0  0
  9 11  2  0  0  0  0
  9 27  1  0  0  0  0
 10 28  1  0  0  0  0
 11 29  1  0  0  0  0
 12 13  2  0  0  0  0
 12 14  1  0  0  0  0
 13 15  1  0  0  0  0
 13 31  1  0  0  0  0
 14 16  2  0  0  0  0
 14 32  1  0  0  0  0
 15 17  2  0  0  0  0
 15 33  1  0  0  0  0
 16 17  1  0  0  0  0
 16 34  1  0  0  0  0
 17 35  1  0  0  0  0
M  END
