DB14089
 OpenBabel07062211533D

 16 15  0  0  1  0  0  0  0  0999 V2000
   -0.0198    0.9572    1.9311 S   0  0  0  0  0  0  0  0  0  0  0  0
   -0.0512    1.6262   -1.5736 S   0  0  0  0  0  0  0  0  0  0  0  0
   -2.4040   -1.0085   -0.5628 O   0  0  0  0  0  0  0  0  0  0  0  0
    2.1056   -1.3493   -0.0314 O   0  0  0  0  0  0  0  0  0  0  0  0
   -2.7768    0.7413    0.8360 O   0  0  0  0  0  0  0  0  0  0  0  0
    2.6354    0.7523   -0.6915 O   0  0  0  0  0  0  0  0  0  0  0  0
   -0.5122   -0.1644    0.5703 C   0  0  2  0  0  0  0  0  0  0  0  0
    0.2932    0.0387   -0.7269 C   0  0  2  0  0  0  0  0  0  0  0  0
   -2.0064   -0.0583    0.3249 C   0  0  0  0  0  0  0  0  0  0  0  0
    1.7888   -0.1084   -0.4910 C   0  0  0  0  0  0  0  0  0  0  0  0
   -0.3339   -1.1736    0.9616 H   0  0  0  0  0  0  0  0  0  0  0  0
    0.0205   -0.7325   -1.4576 H   0  0  0  0  0  0  0  0  0  0  0  0
    1.2174    0.4687    2.1019 H   0  0  0  0  0  0  0  0  0  0  0  0
    0.3411    2.4237   -0.5692 H   0  0  0  0  0  0  0  0  0  0  0  0
   -3.3684   -0.9648   -0.7369 H   0  0  0  0  0  0  0  0  0  0  0  0
    3.0705   -1.4485    0.1154 H   0  0  0  0  0  0  0  0  0  0  0  0
  1  7  1  0  0  0  0
  1 13  1  0  0  0  0
  2  8  1  0  0  0  0
  2 14  1  0  0  0  0
  3  9  1  0  0  0  0
  3 15  1  0  0  0  0
  4 10  1  0  0  0  0
  4 16  1  0  0  0  0
  5  9  2  0  0  0  0
  6 10  2  0  0  0  0
  7  8  1  0  0  0  0
  7  9  1  0  0  0  0
  7 11  1  1  0  0  0
  8 10  1  0  0  0  0
  8 12  1  6  0  0  0
M  END
