DB14196
 OpenBabel07062211533D

 42 44  0  0  0  0  0  0  0  0999 V2000
    2.1714   -0.9620    0.1359 N   0  0  0  0  0  0  0  0  0  0  0  0
   -3.4160   -1.3283   -0.2166 N   0  0  0  0  0  0  0  0  0  0  0  0
    2.8601    0.0420    0.9247 C   0  0  0  0  0  0  0  0  0  0  0  0
    4.2814   -0.4285    1.2497 C   0  0  0  0  0  0  0  0  0  0  0  0
    2.8676    1.3814    0.1811 C   0  0  0  0  0  0  0  0  0  0  0  0
    5.1994   -0.4269    0.0272 C   0  0  0  0  0  0  0  0  0  0  0  0
    3.7905    1.3766   -1.0377 C   0  0  0  0  0  0  0  0  0  0  0  0
    5.2022    0.9279   -0.6738 C   0  0  0  0  0  0  0  0  0  0  0  0
    0.7944   -1.0521    0.0489 C   0  0  0  0  0  0  0  0  0  0  0  0
    0.1811   -2.0490   -0.7357 C   0  0  0  0  0  0  0  0  0  0  0  0
   -0.0366   -0.1499    0.7420 C   0  0  0  0  0  0  0  0  0  0  0  0
   -1.2080   -2.1398   -0.8233 C   0  0  0  0  0  0  0  0  0  0  0  0
   -1.4257   -0.2411    0.6546 C   0  0  0  0  0  0  0  0  0  0  0  0
   -2.0115   -1.2360   -0.1281 C   0  0  0  0  0  0  0  0  0  0  0  0
   -4.4422   -0.3666   -0.1371 C   0  0  0  0  0  0  0  0  0  0  0  0
   -5.6987   -0.7236    0.3550 C   0  0  0  0  0  0  0  0  0  0  0  0
   -4.2049    0.9455   -0.5504 C   0  0  0  0  0  0  0  0  0  0  0  0
   -6.7149    0.2287    0.4336 C   0  0  0  0  0  0  0  0  0  0  0  0
   -5.2211    1.8979   -0.4716 C   0  0  0  0  0  0  0  0  0  0  0  0
   -6.4761    1.5394    0.0204 C   0  0  0  0  0  0  0  0  0  0  0  0
    2.3621    0.1622    1.8944 H   0  0  0  0  0  0  0  0  0  0  0  0
    4.2602   -1.4351    1.6849 H   0  0  0  0  0  0  0  0  0  0  0  0
    4.7110    0.2362    2.0103 H   0  0  0  0  0  0  0  0  0  0  0  0
    3.2126    2.1612    0.8727 H   0  0  0  0  0  0  0  0  0  0  0  0
    1.8643    1.6796   -0.1404 H   0  0  0  0  0  0  0  0  0  0  0  0
    4.8888   -1.2049   -0.6799 H   0  0  0  0  0  0  0  0  0  0  0  0
    6.2199   -0.6781    0.3387 H   0  0  0  0  0  0  0  0  0  0  0  0
    3.8269    2.3818   -1.4730 H   0  0  0  0  0  0  0  0  0  0  0  0
    3.3821    0.7125   -1.8091 H   0  0  0  0  0  0  0  0  0  0  0  0
    5.6647    1.6762   -0.0183 H   0  0  0  0  0  0  0  0  0  0  0  0
    5.8171    0.8737   -1.5791 H   0  0  0  0  0  0  0  0  0  0  0  0
    2.7179   -1.6019   -0.4291 H   0  0  0  0  0  0  0  0  0  0  0  0
    0.7923   -2.7621   -1.2846 H   0  0  0  0  0  0  0  0  0  0  0  0
    0.3601    0.6400    1.3722 H   0  0  0  0  0  0  0  0  0  0  0  0
   -1.6528   -2.9188   -1.4374 H   0  0  0  0  0  0  0  0  0  0  0  0
   -2.0273    0.4617    1.2246 H   0  0  0  0  0  0  0  0  0  0  0  0
   -3.7537   -2.2747   -0.3678 H   0  0  0  0  0  0  0  0  0  0  0  0
   -5.8973   -1.7413    0.6812 H   0  0  0  0  0  0  0  0  0  0  0  0
   -3.2443    1.2481   -0.9586 H   0  0  0  0  0  0  0  0  0  0  0  0
   -7.6922   -0.0501    0.8166 H   0  0  0  0  0  0  0  0  0  0  0  0
   -5.0370    2.9172   -0.7981 H   0  0  0  0  0  0  0  0  0  0  0  0
   -7.2677    2.2806    0.0806 H   0  0  0  0  0  0  0  0  0  0  0  0
  1  3  1  0  0  0  0
  1  9  1  0  0  0  0
  1 32  1  0  0  0  0
  2 14  1  0  0  0  0
  2 15  1  0  0  0  0
  2 37  1  0  0  0  0
  3  4  1  0  0  0  0
  3  5  1  0  0  0  0
  3 21  1  0  0  0  0
  4  6  1  0  0  0  0
  4 22  1  0  0  0  0
  4 23  1  0  0  0  0
  5  7  1  0  0  0  0
  5 24  1  0  0  0  0
  5 25  1  0  0  0  0
  6  8  1  0  0  0  0
  6 26  1  0  0  0  0
  6 27  1  0  0  0  0
  7  8  1  0  0  0  0
  7 28  1  0  0  0  0
  7 29  1  0  0  0  0
  8 30  1  0  0  0  0
  8 31  1  0  0  0  0
  9 10  2  0  0  0  0
  9 11  1  0  0  0  0
 10 12  1  0  0  0  0
 10 33  1  0  0  0  0
 11 13  2  0  0  0  0
 11 34  1  0  0  0  0
 12 14  2  0  0  0  0
 12 35  1  0  0  0  0
 13 14  1  0  0  0  0
 13 36  1  0  0  0  0
 15 16  2  0  0  0  0
 15 17  1  0  0  0  0
 16 18  1  0  0  0  0
 16 38  1  0  0  0  0
 17 19  2  0  0  0  0
 17 39  1  0  0  0  0
 18 20  2  0  0  0  0
 18 40  1  0  0  0  0
 19 20  1  0  0  0  0
 19 41  1  0  0  0  0
 20 42  1  0  0  0  0
M  END
