DB14545
 OpenBabel07062211533D

 67 70  0  0  1  0  0  0  0  0999 V2000
   -1.4273   -1.6028    1.8379 O   0  0  0  0  0  0  0  0  0  0  0  0
    1.1026    1.4252   -1.5733 O   0  0  0  0  0  0  0  0  0  0  0  0
   -3.2051   -2.7472   -0.6558 O   0  0  0  0  0  0  0  0  0  0  0  0
   -4.6551   -0.5014    0.0183 O   0  0  0  0  0  0  0  0  0  0  0  0
    7.1703    2.5753    1.8393 O   0  0  0  0  0  0  0  0  0  0  0  0
   -4.8167    1.7982    0.0875 O   0  0  0  0  0  0  0  0  0  0  0  0
   -9.9148    2.4822    0.1983 O   0  0  0  0  0  0  0  0  0  0  0  0
   -9.5915    0.2336    0.2415 O   0  0  0  0  0  0  0  0  0  0  0  0
   -0.1831   -1.0464   -0.2086 C   0  0  1  0  0  0  0  0  0  0  0  0
    1.0890   -1.7292    0.3388 C   0  0  2  0  0  0  0  0  0  0  0  0
    2.3933   -1.1160   -0.1928 C   0  0  1  0  0  0  0  0  0  0  0  0
    2.4447    0.3920    0.2162 C   0  0  1  0  0  0  0  0  0  0  0  0
   -1.2623   -1.9395    0.4636 C   0  0  1  0  0  0  0  0  0  0  0  0
   -0.1479    0.4278    0.2438 C   0  0  0  0  0  0  0  0  0  0  0  0
    3.8038    1.0952   -0.1911 C   0  0  2  0  0  0  0  0  0  0  0  0
    1.1450    1.1606   -0.1783 C   0  0  2  0  0  0  0  0  0  0  0  0
    0.8229   -3.2138    0.1043 C   0  0  0  0  0  0  0  0  0  0  0  0
   -0.6915   -3.3722    0.3544 C   0  0  0  0  0  0  0  0  0  0  0  0
    3.6074   -1.8658    0.3780 C   0  0  0  0  0  0  0  0  0  0  0  0
   -0.3156   -1.1449   -1.7537 C   0  0  0  0  0  0  0  0  0  0  0  0
    4.9802    0.2336    0.2878 C   0  0  0  0  0  0  0  0  0  0  0  0
    4.9199   -1.2336   -0.0598 C   0  0  0  0  0  0  0  0  0  0  0  0
    3.8504    2.4897    0.4991 C   0  0  0  0  0  0  0  0  0  0  0  0
    3.9695    1.2846   -1.7159 C   0  0  0  0  0  0  0  0  0  0  0  0
   -2.6294   -1.7925   -0.1361 C   0  0  0  0  0  0  0  0  0  0  0  0
    5.2389    3.1081    0.5277 C   0  0  0  0  0  0  0  0  0  0  0  0
    6.0464    0.7143    0.9490 C   0  0  0  0  0  0  0  0  0  0  0  0
    6.2137    2.1668    1.1845 C   0  0  0  0  0  0  0  0  0  0  0  0
   -3.2484   -0.4129   -0.0635 C   0  0  0  0  0  0  0  0  0  0  0  0
   -5.3364    0.6911    0.0899 C   0  0  0  0  0  0  0  0  0  0  0  0
   -6.8231    0.4194    0.1744 C   0  0  0  0  0  0  0  0  0  0  0  0
   -7.6647    1.6899    0.1706 C   0  0  0  0  0  0  0  0  0  0  0  0
   -9.1389    1.3703    0.1999 C   0  0  0  0  0  0  0  0  0  0  0  0
    1.1117   -1.5960    1.4333 H   0  0  0  0  0  0  0  0  0  0  0  0
    2.4298   -1.2064   -1.2831 H   0  0  0  0  0  0  0  0  0  0  0  0
    2.4349    0.3853    1.3194 H   0  0  0  0  0  0  0  0  0  0  0  0
   -1.0007    0.9762   -0.1661 H   0  0  0  0  0  0  0  0  0  0  0  0
   -0.2210    0.4898    1.3364 H   0  0  0  0  0  0  0  0  0  0  0  0
    1.1454    2.1355    0.3221 H   0  0  0  0  0  0  0  0  0  0  0  0
    1.0754   -3.5086   -0.9206 H   0  0  0  0  0  0  0  0  0  0  0  0
    1.4022   -3.8478    0.7834 H   0  0  0  0  0  0  0  0  0  0  0  0
   -0.8567   -3.9416    1.2763 H   0  0  0  0  0  0  0  0  0  0  0  0
   -1.1196   -3.9523   -0.4700 H   0  0  0  0  0  0  0  0  0  0  0  0
    3.5578   -1.8823    1.4748 H   0  0  0  0  0  0  0  0  0  0  0  0
    3.5943   -2.9104    0.0455 H   0  0  0  0  0  0  0  0  0  0  0  0
   -0.5286   -2.1646   -2.0918 H   0  0  0  0  0  0  0  0  0  0  0  0
   -1.1269   -0.5108   -2.1246 H   0  0  0  0  0  0  0  0  0  0  0  0
    0.5893   -0.8361   -2.2807 H   0  0  0  0  0  0  0  0  0  0  0  0
    5.7475   -1.7869    0.4012 H   0  0  0  0  0  0  0  0  0  0  0  0
    5.0406   -1.3500   -1.1438 H   0  0  0  0  0  0  0  0  0  0  0  0
    3.5011    2.3966    1.5371 H   0  0  0  0  0  0  0  0  0  0  0  0
    3.1657    3.1890    0.0043 H   0  0  0  0  0  0  0  0  0  0  0  0
    5.0059    1.5280   -1.9807 H   0  0  0  0  0  0  0  0  0  0  0  0
    3.3573    2.1087   -2.0950 H   0  0  0  0  0  0  0  0  0  0  0  0
    3.7023    0.3837   -2.2770 H   0  0  0  0  0  0  0  0  0  0  0  0
   -1.9961   -2.2755    2.2500 H   0  0  0  0  0  0  0  0  0  0  0  0
    5.2070    4.0369    1.1078 H   0  0  0  0  0  0  0  0  0  0  0  0
    5.6004    3.3459   -0.4777 H   0  0  0  0  0  0  0  0  0  0  0  0
    0.3052    1.9521   -1.7522 H   0  0  0  0  0  0  0  0  0  0  0  0
    6.8542    0.0705    1.2804 H   0  0  0  0  0  0  0  0  0  0  0  0
   -2.9720    0.1401   -0.9655 H   0  0  0  0  0  0  0  0  0  0  0  0
   -2.8924    0.1097    0.8286 H   0  0  0  0  0  0  0  0  0  0  0  0
   -7.0981   -0.2069   -0.6828 H   0  0  0  0  0  0  0  0  0  0  0  0
   -7.0111   -0.1493    1.0926 H   0  0  0  0  0  0  0  0  0  0  0  0
   -7.4239    2.3013    1.0473 H   0  0  0  0  0  0  0  0  0  0  0  0
   -7.4569    2.2749   -0.7323 H   0  0  0  0  0  0  0  0  0  0  0  0
  -10.8704    2.2620    0.2277 H   0  0  0  0  0  0  0  0  0  0  0  0
  1 13  1  0  0  0  0
  1 56  1  0  0  0  0
  2 16  1  0  0  0  0
  2 59  1  0  0  0  0
  3 25  2  0  0  0  0
  4 29  1  0  0  0  0
  4 30  1  0  0  0  0
  5 28  2  0  0  0  0
  6 30  2  0  0  0  0
  7 33  1  0  0  0  0
  7 67  1  0  0  0  0
  8 33  2  0  0  0  0
  9 10  1  1  0  0  0
  9 14  1  0  0  0  0
  9 20  1  0  0  0  0
 10 11  1  6  0  0  0
 10 17  1  0  0  0  0
 10 34  1  0  0  0  0
 11 12  1  1  0  0  0
 11 19  1  0  0  0  0
 11 35  1  0  0  0  0
 12 15  1  6  0  0  0
 12 36  1  0  0  0  0
 13  9  1  6  0  0  0
 13 18  1  0  0  0  0
 13 25  1  0  0  0  0
 14 16  1  0  0  0  0
 14 37  1  0  0  0  0
 14 38  1  0  0  0  0
 15 21  1  0  0  0  0
 15 23  1  0  0  0  0
 15 24  1  6  0  0  0
 16 12  1  1  0  0  0
 16 39  1  0  0  0  0
 17 18  1  0  0  0  0
 17 40  1  0  0  0  0
 17 41  1  0  0  0  0
 18 42  1  0  0  0  0
 18 43  1  0  0  0  0
 19 22  1  0  0  0  0
 19 44  1  0  0  0  0
 19 45  1  0  0  0  0
 20 46  1  0  0  0  0
 20 47  1  0  0  0  0
 20 48  1  0  0  0  0
 21 22  1  0  0  0  0
 21 27  2  0  0  0  0
 22 49  1  0  0  0  0
 22 50  1  0  0  0  0
 23 26  1  0  0  0  0
 23 51  1  0  0  0  0
 23 52  1  0  0  0  0
 24 53  1  0  0  0  0
 24 54  1  0  0  0  0
 24 55  1  0  0  0  0
 25 29  1  0  0  0  0
 26 28  1  0  0  0  0
 26 57  1  0  0  0  0
 26 58  1  0  0  0  0
 27 28  1  0  0  0  0
 27 60  1  0  0  0  0
 29 61  1  0  0  0  0
 29 62  1  0  0  0  0
 30 31  1  0  0  0  0
 31 32  1  0  0  0  0
 31 63  1  0  0  0  0
 31 64  1  0  0  0  0
 32 33  1  0  0  0  0
 32 65  1  0  0  0  0
 32 66  1  0  0  0  0
M  END
