DB14627
 OpenBabel07062211533D

 49 52  0  0  0  0  0  0  0  0999 V2000
   -0.4058   -1.2391    3.0851 O   0  0  0  0  0  0  0  0  0  0  0  0
    4.6094    1.9616    0.5605 O   0  0  0  0  0  0  0  0  0  0  0  0
   -4.5964    1.6887   -0.8588 O   0  0  0  0  0  0  0  0  0  0  0  0
    3.6434    3.2465   -1.1410 O   0  0  0  0  0  0  0  0  0  0  0  0
   -4.2184    3.1098    0.9625 O   0  0  0  0  0  0  0  0  0  0  0  0
   -0.1535   -3.2671    1.9399 N   0  0  0  0  0  0  0  0  0  0  0  0
   -0.0205   -1.2619    0.6201 C   0  0  0  0  0  0  0  0  0  0  0  0
    0.1434   -2.5407   -0.2020 C   0  0  0  0  0  0  0  0  0  0  0  0
    1.2041   -0.4096    0.6044 C   0  0  0  0  0  0  0  0  0  0  0  0
   -1.2308   -0.4817    0.2289 C   0  0  0  0  0  0  0  0  0  0  0  0
   -0.2233   -1.8771    2.0577 C   0  0  0  0  0  0  0  0  0  0  0  0
    0.0561   -3.6586    0.6262 C   0  0  0  0  0  0  0  0  0  0  0  0
    0.3363   -2.7071   -1.5662 C   0  0  0  0  0  0  0  0  0  0  0  0
    0.1627   -4.9523    0.1533 C   0  0  0  0  0  0  0  0  0  0  0  0
    1.2815    0.7135    1.4270 C   0  0  0  0  0  0  0  0  0  0  0  0
   -1.1120    0.5929   -0.6515 C   0  0  0  0  0  0  0  0  0  0  0  0
    2.2699   -0.7370   -0.2330 C   0  0  0  0  0  0  0  0  0  0  0  0
   -2.4793   -0.8282    0.7444 C   0  0  0  0  0  0  0  0  0  0  0  0
    0.4472   -4.0069   -2.0706 C   0  0  0  0  0  0  0  0  0  0  0  0
    0.3619   -5.1202   -1.2173 C   0  0  0  0  0  0  0  0  0  0  0  0
    2.4262    1.5105    1.4121 C   0  0  0  0  0  0  0  0  0  0  0  0
   -2.2435    1.3223   -1.0170 C   0  0  0  0  0  0  0  0  0  0  0  0
    3.4146    0.0598   -0.2480 C   0  0  0  0  0  0  0  0  0  0  0  0
   -3.6107   -0.0988    0.3789 C   0  0  0  0  0  0  0  0  0  0  0  0
    3.4929    1.1837    0.5747 C   0  0  0  0  0  0  0  0  0  0  0  0
   -3.4929    0.9765   -0.5020 C   0  0  0  0  0  0  0  0  0  0  0  0
    4.5689    3.0068   -0.3770 C   0  0  0  0  0  0  0  0  0  0  0  0
   -4.8720    2.7796   -0.0180 C   0  0  0  0  0  0  0  0  0  0  0  0
    5.8391    3.8022   -0.3150 C   0  0  0  0  0  0  0  0  0  0  0  0
   -6.1009    3.4965   -0.4929 C   0  0  0  0  0  0  0  0  0  0  0  0
   -0.2500   -3.9183    2.7101 H   0  0  0  0  0  0  0  0  0  0  0  0
    0.3814   -1.8592   -2.2420 H   0  0  0  0  0  0  0  0  0  0  0  0
    0.0923   -5.8091    0.8135 H   0  0  0  0  0  0  0  0  0  0  0  0
    0.4638    0.9973    2.0839 H   0  0  0  0  0  0  0  0  0  0  0  0
   -0.1690    0.8790   -1.1076 H   0  0  0  0  0  0  0  0  0  0  0  0
    2.3260   -1.6058   -0.8707 H   0  0  0  0  0  0  0  0  0  0  0  0
   -2.6226   -1.6718    1.4125 H   0  0  0  0  0  0  0  0  0  0  0  0
    0.5956   -4.1592   -3.1363 H   0  0  0  0  0  0  0  0  0  0  0  0
    0.4491   -6.1210   -1.6315 H   0  0  0  0  0  0  0  0  0  0  0  0
    2.4801    2.3854    2.0543 H   0  0  0  0  0  0  0  0  0  0  0  0
   -2.1464    2.1537   -1.7100 H   0  0  0  0  0  0  0  0  0  0  0  0
    4.2470   -0.2047   -0.8948 H   0  0  0  0  0  0  0  0  0  0  0  0
   -4.5820   -0.3767    0.7789 H   0  0  0  0  0  0  0  0  0  0  0  0
    5.9559    4.2335    0.6822 H   0  0  0  0  0  0  0  0  0  0  0  0
    5.7937    4.6157   -1.0446 H   0  0  0  0  0  0  0  0  0  0  0  0
    6.6888    3.1600   -0.5593 H   0  0  0  0  0  0  0  0  0  0  0  0
   -5.9411    3.8705   -1.5071 H   0  0  0  0  0  0  0  0  0  0  0  0
   -6.3023    4.3465    0.1652 H   0  0  0  0  0  0  0  0  0  0  0  0
   -6.9580    2.8195   -0.4620 H   0  0  0  0  0  0  0  0  0  0  0  0
  1 11  2  0  0  0  0
  2 25  1  0  0  0  0
  2 27  1  0  0  0  0
  3 26  1  0  0  0  0
  3 28  1  0  0  0  0
  4 27  2  0  0  0  0
  5 28  2  0  0  0  0
  6 11  1  0  0  0  0
  6 12  1  0  0  0  0
  6 31  1  0  0  0  0
  7  8  1  0  0  0  0
  7  9  1  0  0  0  0
  7 10  1  0  0  0  0
  7 11  1  0  0  0  0
  8 12  2  0  0  0  0
  8 13  1  0  0  0  0
  9 15  2  0  0  0  0
  9 17  1  0  0  0  0
 10 16  2  0  0  0  0
 10 18  1  0  0  0  0
 12 14  1  0  0  0  0
 13 19  2  0  0  0  0
 13 32  1  0  0  0  0
 14 20  2  0  0  0  0
 14 33  1  0  0  0  0
 15 21  1  0  0  0  0
 15 34  1  0  0  0  0
 16 22  1  0  0  0  0
 16 35  1  0  0  0  0
 17 23  2  0  0  0  0
 17 36  1  0  0  0  0
 18 24  2  0  0  0  0
 18 37  1  0  0  0  0
 19 20  1  0  0  0  0
 19 38  1  0  0  0  0
 20 39  1  0  0  0  0
 21 25  2  0  0  0  0
 21 40  1  0  0  0  0
 22 26  2  0  0  0  0
 22 41  1  0  0  0  0
 23 25  1  0  0  0  0
 23 42  1  0  0  0  0
 24 26  1  0  0  0  0
 24 43  1  0  0  0  0
 27 29  1  0  0  0  0
 28 30  1  0  0  0  0
 29 44  1  0  0  0  0
 29 45  1  0  0  0  0
 29 46  1  0  0  0  0
 30 47  1  0  0  0  0
 30 48  1  0  0  0  0
 30 49  1  0  0  0  0
M  END
