DB14753
 OpenBabel07062211533D

 37 38  0  0  0  0  0  0  0  0999 V2000
   -1.8772    1.8581    1.6290 O   0  0  0  0  0  0  0  0  0  0  0  0
   -6.8169   -0.8496   -0.7104 N   0  0  0  0  0  0  0  0  0  0  0  0
    6.7645   -1.0058    0.6119 N   0  0  0  0  0  0  0  0  0  0  0  0
   -6.7309    1.0865    0.5956 N   0  0  0  0  0  0  0  0  0  0  0  0
    6.8974    0.9158   -0.7112 N   0  0  0  0  0  0  0  0  0  0  0  0
   -1.8740   -0.1359    0.2884 C   0  0  0  0  0  0  0  0  0  0  0  0
    1.9162    0.2639   -0.3838 C   0  0  0  0  0  0  0  0  0  0  0  0
   -2.5418    0.9036    0.9172 C   0  0  0  0  0  0  0  0  0  0  0  0
   -0.4063   -0.2398    0.3721 C   0  0  0  0  0  0  0  0  0  0  0  0
   -4.6363    0.0173    0.1018 C   0  0  0  0  0  0  0  0  0  0  0  0
   -2.5620   -1.1004   -0.4322 C   0  0  0  0  0  0  0  0  0  0  0  0
    0.4672    0.3506   -0.4774 C   0  0  0  0  0  0  0  0  0  0  0  0
   -3.9313    0.9806    0.8233 C   0  0  0  0  0  0  0  0  0  0  0  0
   -3.9516   -1.0232   -0.5261 C   0  0  0  0  0  0  0  0  0  0  0  0
    2.5077   -0.7679    0.3448 C   0  0  0  0  0  0  0  0  0  0  0  0
    2.7143    1.2132   -1.0224 C   0  0  0  0  0  0  0  0  0  0  0  0
    4.6953    0.0988   -0.2033 C   0  0  0  0  0  0  0  0  0  0  0  0
    3.8971   -0.8505    0.4352 C   0  0  0  0  0  0  0  0  0  0  0  0
    4.1038    1.1306   -0.9321 C   0  0  0  0  0  0  0  0  0  0  0  0
   -6.0850    0.0976    0.0036 C   0  0  0  0  0  0  0  0  0  0  0  0
    6.1440    0.0128   -0.1089 C   0  0  0  0  0  0  0  0  0  0  0  0
   -0.0712   -0.8306    1.2200 H   0  0  0  0  0  0  0  0  0  0  0  0
   -2.0404   -1.9165   -0.9257 H   0  0  0  0  0  0  0  0  0  0  0  0
    0.0745    0.9554   -1.2924 H   0  0  0  0  0  0  0  0  0  0  0  0
   -4.4403    1.8018    1.3221 H   0  0  0  0  0  0  0  0  0  0  0  0
   -4.4498   -1.7975   -1.0989 H   0  0  0  0  0  0  0  0  0  0  0  0
    1.9281   -1.5412    0.8404 H   0  0  0  0  0  0  0  0  0  0  0  0
    2.2708    2.0253   -1.5935 H   0  0  0  0  0  0  0  0  0  0  0  0
    4.3054   -1.6745    1.0098 H   0  0  0  0  0  0  0  0  0  0  0  0
    4.6958    1.8864   -1.4411 H   0  0  0  0  0  0  0  0  0  0  0  0
   -0.9252    1.6717    1.6522 H   0  0  0  0  0  0  0  0  0  0  0  0
   -7.8273   -0.7756   -0.7685 H   0  0  0  0  0  0  0  0  0  0  0  0
   -6.4025   -1.6370   -1.1929 H   0  0  0  0  0  0  0  0  0  0  0  0
    7.7769   -1.0480    0.6672 H   0  0  0  0  0  0  0  0  0  0  0  0
    6.2639   -1.7360    1.1028 H   0  0  0  0  0  0  0  0  0  0  0  0
   -7.7339    0.9717    0.4118 H   0  0  0  0  0  0  0  0  0  0  0  0
    7.8810    0.6882   -0.5286 H   0  0  0  0  0  0  0  0  0  0  0  0
  1  8  1  0  0  0  0
  1 31  1  0  0  0  0
  2 20  1  0  0  0  0
  2 32  1  0  0  0  0
  2 33  1  0  0  0  0
  3 21  1  0  0  0  0
  3 34  1  0  0  0  0
  3 35  1  0  0  0  0
  4 20  2  0  0  0  0
  4 36  1  0  0  0  0
  5 21  2  0  0  0  0
  5 37  1  0  0  0  0
  6  8  2  0  0  0  0
  6  9  1  0  0  0  0
  6 11  1  0  0  0  0
  7 12  1  0  0  0  0
  7 15  2  0  0  0  0
  7 16  1  0  0  0  0
  8 13  1  0  0  0  0
  9 12  2  0  0  0  0
  9 22  1  0  0  0  0
 10 13  2  0  0  0  0
 10 14  1  0  0  0  0
 10 20  1  0  0  0  0
 11 14  2  0  0  0  0
 11 23  1  0  0  0  0
 12 24  1  0  0  0  0
 13 25  1  0  0  0  0
 14 26  1  0  0  0  0
 15 18  1  0  0  0  0
 15 27  1  0  0  0  0
 16 19  2  0  0  0  0
 16 28  1  0  0  0  0
 17 18  2  0  0  0  0
 17 19  1  0  0  0  0
 17 21  1  0  0  0  0
 18 29  1  0  0  0  0
 19 30  1  0  0  0  0
M  END
