DB14575
 OpenBabel07062211533D

 33 35  0  0  1  0  0  0  0  0999 V2000
   -0.4313   -1.0550   -2.3332 O   0  0  0  0  0  0  0  0  0  0  0  0
    0.8252    2.9168   -1.5343 O   0  0  0  0  0  0  0  0  0  0  0  0
   -0.0064    1.0377   -0.3832 N   0  0  0  0  0  0  0  0  0  0  0  0
   -1.4157    2.6226   -1.4456 N   0  0  0  0  0  0  0  0  0  0  0  0
   -0.5589   -1.7341   -1.0871 C   0  0  1  0  0  0  0  0  0  0  0  0
    0.8037   -2.0031   -0.4595 C   0  0  0  0  0  0  0  0  0  0  0  0
   -1.4317   -0.9601   -0.1421 C   0  0  0  0  0  0  0  0  0  0  0  0
    1.6363   -0.8359    0.0358 C   0  0  0  0  0  0  0  0  0  0  0  0
   -1.1365    0.3711    0.1824 C   0  0  0  0  0  0  0  0  0  0  0  0
    1.2824    0.5320    0.0237 C   0  0  0  0  0  0  0  0  0  0  0  0
   -2.5592   -1.5718    0.4288 C   0  0  0  0  0  0  0  0  0  0  0  0
    2.9206   -1.2032    0.5064 C   0  0  0  0  0  0  0  0  0  0  0  0
   -1.9762    1.0717    1.0665 C   0  0  0  0  0  0  0  0  0  0  0  0
    2.2393    1.4680    0.4811 C   0  0  0  0  0  0  0  0  0  0  0  0
   -0.1233    2.2463   -1.1158 C   0  0  0  0  0  0  0  0  0  0  0  0
   -3.3848   -0.8693    1.3062 C   0  0  0  0  0  0  0  0  0  0  0  0
    3.8434   -0.2597    0.9475 C   0  0  0  0  0  0  0  0  0  0  0  0
   -3.0933    0.4525    1.6251 C   0  0  0  0  0  0  0  0  0  0  0  0
    3.5012    1.0807    0.9334 C   0  0  0  0  0  0  0  0  0  0  0  0
   -1.0298   -2.6976   -1.3180 H   0  0  0  0  0  0  0  0  0  0  0  0
    1.4104   -2.5383   -1.2030 H   0  0  0  0  0  0  0  0  0  0  0  0
    0.6605   -2.6799    0.3948 H   0  0  0  0  0  0  0  0  0  0  0  0
   -2.8032   -2.6047    0.1922 H   0  0  0  0  0  0  0  0  0  0  0  0
    3.2116   -2.2526    0.5188 H   0  0  0  0  0  0  0  0  0  0  0  0
   -1.7574    2.1014    1.3400 H   0  0  0  0  0  0  0  0  0  0  0  0
    2.0002    2.5277    0.5422 H   0  0  0  0  0  0  0  0  0  0  0  0
   -4.2536   -1.3550    1.7405 H   0  0  0  0  0  0  0  0  0  0  0  0
    0.1463   -1.5910   -2.9029 H   0  0  0  0  0  0  0  0  0  0  0  0
    4.8205   -0.5737    1.3003 H   0  0  0  0  0  0  0  0  0  0  0  0
   -3.7326    1.0010    2.3105 H   0  0  0  0  0  0  0  0  0  0  0  0
    4.2053    1.8284    1.2859 H   0  0  0  0  0  0  0  0  0  0  0  0
   -1.5785    3.4697   -1.9804 H   0  0  0  0  0  0  0  0  0  0  0  0
   -2.2349    2.0574   -1.2571 H   0  0  0  0  0  0  0  0  0  0  0  0
  1  5  1  0  0  0  0
  1 28  1  0  0  0  0
  2 15  2  0  0  0  0
  3  9  1  0  0  0  0
  3 10  1  0  0  0  0
  3 15  1  0  0  0  0
  4 15  1  0  0  0  0
  4 32  1  0  0  0  0
  4 33  1  0  0  0  0
  5  6  1  0  0  0  0
  5  7  1  0  0  0  0
  5 20  1  6  0  0  0
  6  8  1  0  0  0  0
  6 21  1  0  0  0  0
  6 22  1  0  0  0  0
  7  9  2  0  0  0  0
  7 11  1  0  0  0  0
  8 10  2  0  0  0  0
  8 12  1  0  0  0  0
  9 13  1  0  0  0  0
 10 14  1  0  0  0  0
 11 16  2  0  0  0  0
 11 23  1  0  0  0  0
 12 17  2  0  0  0  0
 12 24  1  0  0  0  0
 13 18  2  0  0  0  0
 13 25  1  0  0  0  0
 14 19  2  0  0  0  0
 14 26  1  0  0  0  0
 16 18  1  0  0  0  0
 16 27  1  0  0  0  0
 17 19  1  0  0  0  0
 17 29  1  0  0  0  0
 18 30  1  0  0  0  0
 19 31  1  0  0  0  0
M  END
