DB14542
 OpenBabel07062211533D

 61 64  0  0  1  0  0  0  0  0999 V2000
    6.2923    1.8747   -0.2973 P   0  0  0  0  0  0  0  0  0  0  0  0
    2.5674   -1.1988   -1.8839 O   0  0  0  0  0  0  0  0  0  0  0  0
   -0.3028    1.5138    1.5234 O   0  0  0  0  0  0  0  0  0  0  0  0
    4.5413   -2.0175    0.5905 O   0  0  0  0  0  0  0  0  0  0  0  0
    5.6390    0.3966   -0.1626 O   0  0  0  0  0  0  0  0  0  0  0  0
   -6.5405    1.7011   -1.7696 O   0  0  0  0  0  0  0  0  0  0  0  0
    5.6841    2.6782    0.9675 O   0  0  0  0  0  0  0  0  0  0  0  0
    5.5019    2.5104   -1.5567 O   0  0  0  0  0  0  0  0  0  0  0  0
    7.7885    1.8959   -0.4118 O   0  0  0  0  0  0  0  0  0  0  0  0
    1.2975   -0.7791    0.1793 C   0  0  1  0  0  0  0  0  0  0  0  0
    0.1261   -1.6499   -0.3243 C   0  0  2  0  0  0  0  0  0  0  0  0
   -1.2418   -1.2180    0.2250 C   0  0  1  0  0  0  0  0  0  0  0  0
   -1.5180    0.2571   -0.2132 C   0  0  1  0  0  0  0  0  0  0  0  0
    2.4803   -1.5234   -0.4996 C   0  0  1  0  0  0  0  0  0  0  0  0
    1.0413    0.6638   -0.3018 C   0  0  0  0  0  0  0  0  0  0  0  0
   -2.9557    0.7674    0.2113 C   0  0  2  0  0  0  0  0  0  0  0  0
   -0.3348    1.2132    0.1354 C   0  0  2  0  0  0  0  0  0  0  0  0
    0.6078   -3.0751   -0.0661 C   0  0  0  0  0  0  0  0  0  0  0  0
    2.1240   -3.0201   -0.3482 C   0  0  0  0  0  0  0  0  0  0  0  0
   -2.3465   -2.1472   -0.3022 C   0  0  0  0  0  0  0  0  0  0  0  0
    1.4739   -0.8214    1.7226 C   0  0  0  0  0  0  0  0  0  0  0  0
   -4.0053   -0.2651   -0.2225 C   0  0  0  0  0  0  0  0  0  0  0  0
   -3.7273   -1.7000    0.1532 C   0  0  0  0  0  0  0  0  0  0  0  0
   -3.2164    2.1242   -0.5056 C   0  0  0  0  0  0  0  0  0  0  0  0
   -3.1162    0.9665    1.7355 C   0  0  0  0  0  0  0  0  0  0  0  0
    3.8237   -1.1678    0.0650 C   0  0  0  0  0  0  0  0  0  0  0  0
   -4.6799    2.5362   -0.5144 C   0  0  0  0  0  0  0  0  0  0  0  0
   -5.1426    0.0421   -0.8683 C   0  0  0  0  0  0  0  0  0  0  0  0
   -5.5220    1.4496   -1.1292 C   0  0  0  0  0  0  0  0  0  0  0  0
    4.2361    0.2842   -0.0499 C   0  0  0  0  0  0  0  0  0  0  0  0
    0.0626   -1.5470   -1.4205 H   0  0  0  0  0  0  0  0  0  0  0  0
   -1.2430   -1.2871    1.3174 H   0  0  0  0  0  0  0  0  0  0  0  0
   -1.5296    0.2261   -1.3160 H   0  0  0  0  0  0  0  0  0  0  0  0
    1.0828    0.7102   -1.3969 H   0  0  0  0  0  0  0  0  0  0  0  0
    1.8143    1.3385    0.0769 H   0  0  0  0  0  0  0  0  0  0  0  0
   -0.4855    2.1661   -0.3846 H   0  0  0  0  0  0  0  0  0  0  0  0
    0.1123   -3.8013   -0.7186 H   0  0  0  0  0  0  0  0  0  0  0  0
    0.4212   -3.3789    0.9701 H   0  0  0  0  0  0  0  0  0  0  0  0
    2.6477   -3.5134    0.4777 H   0  0  0  0  0  0  0  0  0  0  0  0
    2.3508   -3.5815   -1.2619 H   0  0  0  0  0  0  0  0  0  0  0  0
   -2.1766   -3.1711    0.0511 H   0  0  0  0  0  0  0  0  0  0  0  0
   -2.3172   -2.1822   -1.3991 H   0  0  0  0  0  0  0  0  0  0  0  0
    1.8379   -1.7917    2.0763 H   0  0  0  0  0  0  0  0  0  0  0  0
    2.1931   -0.0690    2.0614 H   0  0  0  0  0  0  0  0  0  0  0  0
    0.5449   -0.6331    2.2643 H   0  0  0  0  0  0  0  0  0  0  0  0
   -3.8081   -1.8071    1.2419 H   0  0  0  0  0  0  0  0  0  0  0  0
   -4.4757   -2.3769   -0.2771 H   0  0  0  0  0  0  0  0  0  0  0  0
   -2.8784    2.0580   -1.5494 H   0  0  0  0  0  0  0  0  0  0  0  0
   -2.6297    2.9259   -0.0412 H   0  0  0  0  0  0  0  0  0  0  0  0
   -2.7109    0.1268    2.3083 H   0  0  0  0  0  0  0  0  0  0  0  0
   -2.6215    1.8785    2.0834 H   0  0  0  0  0  0  0  0  0  0  0  0
   -4.1713    1.0649    2.0194 H   0  0  0  0  0  0  0  0  0  0  0  0
    3.2187   -1.7923   -2.2955 H   0  0  0  0  0  0  0  0  0  0  0  0
   -4.7937    3.4462   -1.1139 H   0  0  0  0  0  0  0  0  0  0  0  0
   -5.0515    2.7431    0.4941 H   0  0  0  0  0  0  0  0  0  0  0  0
    0.4138    2.1537    1.6729 H   0  0  0  0  0  0  0  0  0  0  0  0
   -5.8558   -0.7186   -1.1677 H   0  0  0  0  0  0  0  0  0  0  0  0
    3.9022    0.8149    0.8439 H   0  0  0  0  0  0  0  0  0  0  0  0
    3.7912    0.7313   -0.9408 H   0  0  0  0  0  0  0  0  0  0  0  0
    5.9962    3.5910    1.1443 H   0  0  0  0  0  0  0  0  0  0  0  0
    5.7835    3.3843   -1.9016 H   0  0  0  0  0  0  0  0  0  0  0  0
  1  5  1  0  0  0  0
  1  7  1  0  0  0  0
  1  8  1  0  0  0  0
  1  9  2  0  0  0  0
  2 14  1  0  0  0  0
  2 53  1  0  0  0  0
  3 17  1  0  0  0  0
  3 56  1  0  0  0  0
  4 26  2  0  0  0  0
  5 30  1  0  0  0  0
  6 29  2  0  0  0  0
  7 60  1  0  0  0  0
  8 61  1  0  0  0  0
 10 11  1  6  0  0  0
 10 15  1  0  0  0  0
 10 21  1  0  0  0  0
 11 12  1  1  0  0  0
 11 18  1  0  0  0  0
 11 31  1  0  0  0  0
 12 13  1  6  0  0  0
 12 20  1  0  0  0  0
 12 32  1  0  0  0  0
 13 16  1  1  0  0  0
 13 33  1  0  0  0  0
 14 10  1  1  0  0  0
 14 19  1  0  0  0  0
 14 26  1  0  0  0  0
 15 17  1  0  0  0  0
 15 34  1  0  0  0  0
 15 35  1  0  0  0  0
 16 22  1  0  0  0  0
 16 24  1  0  0  0  0
 16 25  1  1  0  0  0
 17 13  1  6  0  0  0
 17 36  1  0  0  0  0
 18 19  1  0  0  0  0
 18 37  1  0  0  0  0
 18 38  1  0  0  0  0
 19 39  1  0  0  0  0
 19 40  1  0  0  0  0
 20 23  1  0  0  0  0
 20 41  1  0  0  0  0
 20 42  1  0  0  0  0
 21 43  1  0  0  0  0
 21 44  1  0  0  0  0
 21 45  1  0  0  0  0
 22 23  1  0  0  0  0
 22 28  2  0  0  0  0
 23 46  1  0  0  0  0
 23 47  1  0  0  0  0
 24 27  1  0  0  0  0
 24 48  1  0  0  0  0
 24 49  1  0  0  0  0
 25 50  1  0  0  0  0
 25 51  1  0  0  0  0
 25 52  1  0  0  0  0
 26 30  1  0  0  0  0
 27 29  1  0  0  0  0
 27 54  1  0  0  0  0
 27 55  1  0  0  0  0
 28 29  1  0  0  0  0
 28 57  1  0  0  0  0
 30 58  1  0  0  0  0
 30 59  1  0  0  0  0
M  END
