DB14881
 OpenBabel07062211533D

 57 60  0  0  1  0  0  0  0  0999 V2000
    5.8255   -2.3167   -1.2292 S   0  0  0  0  0  0  0  0  0  0  0  0
   -3.7487   -1.6755   -0.6148 O   0  0  0  0  0  0  0  0  0  0  0  0
    5.5077    0.9690    0.7817 O   0  0  0  0  0  0  0  0  0  0  0  0
   -1.3662    1.3964   -1.7274 N   0  0  0  0  0  0  0  0  0  0  0  0
    2.6793   -0.8094   -0.1553 N   0  0  0  0  0  0  0  0  0  0  0  0
   -3.6087   -0.8295    0.5329 C   0  0  0  0  0  0  0  0  0  0  0  0
   -1.1170   -0.4400   -0.1030 C   0  0  2  0  0  0  0  0  0  0  0  0
   -2.1463   -0.7993    1.0092 C   0  0  0  0  0  0  0  0  0  0  0  0
   -4.5210   -1.4103    1.6258 C   0  0  0  0  0  0  0  0  0  0  0  0
   -4.2609    0.5411    0.3119 C   0  0  0  0  0  0  0  0  0  0  0  0
   -1.4287   -1.3871   -1.2939 C   0  0  0  0  0  0  0  0  0  0  0  0
   -5.9317   -0.9807    1.2270 C   0  0  0  0  0  0  0  0  0  0  0  0
   -5.7617    0.2584    0.3518 C   0  0  0  0  0  0  0  0  0  0  0  0
    0.3048   -0.7869    0.4044 C   0  0  0  0  0  0  0  0  0  0  0  0
   -2.8961   -1.3479   -1.7067 C   0  0  0  0  0  0  0  0  0  0  0  0
   -1.1057    1.0638   -0.4433 C   0  0  0  0  0  0  0  0  0  0  0  0
    1.3532   -0.4583   -0.6492 C   0  0  0  0  0  0  0  0  0  0  0  0
   -0.8367    1.9838    0.5572 C   0  0  0  0  0  0  0  0  0  0  0  0
   -0.8354    3.3322    0.2179 C   0  0  0  0  0  0  0  0  0  0  0  0
   -1.3561    2.7164   -2.0196 C   0  0  0  0  0  0  0  0  0  0  0  0
    3.6971   -0.5347   -1.1598 C   0  0  0  0  0  0  0  0  0  0  0  0
   -1.0992    3.7138   -1.0928 C   0  0  0  0  0  0  0  0  0  0  0  0
    5.0774   -0.8820   -0.6689 C   0  0  0  0  0  0  0  0  0  0  0  0
    5.8811   -0.1891    0.2098 C   0  0  0  0  0  0  0  0  0  0  0  0
    7.1273   -0.8450    0.4257 C   0  0  0  0  0  0  0  0  0  0  0  0
    7.2289   -2.0139   -0.2961 C   0  0  0  0  0  0  0  0  0  0  0  0
    6.4333    1.5960    1.6806 C   0  0  0  0  0  0  0  0  0  0  0  0
   -1.9020   -1.8085    1.3727 H   0  0  0  0  0  0  0  0  0  0  0  0
   -2.0455   -0.1378    1.8781 H   0  0  0  0  0  0  0  0  0  0  0  0
   -3.9998    1.2291    1.1254 H   0  0  0  0  0  0  0  0  0  0  0  0
   -4.0000    1.0191   -0.6346 H   0  0  0  0  0  0  0  0  0  0  0  0
   -4.4544   -2.5011    1.6977 H   0  0  0  0  0  0  0  0  0  0  0  0
   -4.2769   -0.9841    2.6067 H   0  0  0  0  0  0  0  0  0  0  0  0
   -1.1897   -2.4199   -1.0059 H   0  0  0  0  0  0  0  0  0  0  0  0
   -0.8288   -1.1514   -2.1791 H   0  0  0  0  0  0  0  0  0  0  0  0
   -6.5459   -0.7743    2.1096 H   0  0  0  0  0  0  0  0  0  0  0  0
   -6.4307   -1.7740    0.6587 H   0  0  0  0  0  0  0  0  0  0  0  0
   -6.1384    0.0546   -0.6574 H   0  0  0  0  0  0  0  0  0  0  0  0
   -6.3190    1.1154    0.7432 H   0  0  0  0  0  0  0  0  0  0  0  0
    0.3598   -1.8562    0.6526 H   0  0  0  0  0  0  0  0  0  0  0  0
    0.5358   -0.2581    1.3385 H   0  0  0  0  0  0  0  0  0  0  0  0
   -3.1894   -0.3864   -2.1358 H   0  0  0  0  0  0  0  0  0  0  0  0
   -3.0696   -2.0982   -2.4858 H   0  0  0  0  0  0  0  0  0  0  0  0
    1.1708   -1.0200   -1.5699 H   0  0  0  0  0  0  0  0  0  0  0  0
    1.3525    0.6077   -0.8964 H   0  0  0  0  0  0  0  0  0  0  0  0
   -0.6351    1.6943    1.5821 H   0  0  0  0  0  0  0  0  0  0  0  0
    2.6982   -1.8003    0.0868 H   0  0  0  0  0  0  0  0  0  0  0  0
   -0.6304    4.0844    0.9736 H   0  0  0  0  0  0  0  0  0  0  0  0
   -1.5678    2.9612   -3.0551 H   0  0  0  0  0  0  0  0  0  0  0  0
    3.6900    0.5330   -1.4157 H   0  0  0  0  0  0  0  0  0  0  0  0
    3.4771   -1.0812   -2.0860 H   0  0  0  0  0  0  0  0  0  0  0  0
   -1.1038    4.7591   -1.3799 H   0  0  0  0  0  0  0  0  0  0  0  0
    7.9264   -0.5019    1.0700 H   0  0  0  0  0  0  0  0  0  0  0  0
    8.0599   -2.7045   -0.3200 H   0  0  0  0  0  0  0  0  0  0  0  0
    5.9677    2.5158    2.0469 H   0  0  0  0  0  0  0  0  0  0  0  0
    7.3576    1.8675    1.1605 H   0  0  0  0  0  0  0  0  0  0  0  0
    6.6358    0.9519    2.5423 H   0  0  0  0  0  0  0  0  0  0  0  0
  1 23  1  0  0  0  0
  1 26  1  0  0  0  0
  2  6  1  0  0  0  0
  2 15  1  0  0  0  0
  3 24  1  0  0  0  0
  3 27  1  0  0  0  0
  4 16  2  0  0  0  0
  4 20  1  0  0  0  0
  5 17  1  0  0  0  0
  5 21  1  0  0  0  0
  5 47  1  0  0  0  0
  6  8  1  0  0  0  0
  6  9  1  0  0  0  0
  6 10  1  0  0  0  0
  7  8  1  0  0  0  0
  7 11  1  0  0  0  0
  7 14  1  1  0  0  0
  7 16  1  0  0  0  0
  8 28  1  0  0  0  0
  8 29  1  0  0  0  0
  9 12  1  0  0  0  0
  9 32  1  0  0  0  0
  9 33  1  0  0  0  0
 10 13  1  0  0  0  0
 10 30  1  0  0  0  0
 10 31  1  0  0  0  0
 11 15  1  0  0  0  0
 11 34  1  0  0  0  0
 11 35  1  0  0  0  0
 12 13  1  0  0  0  0
 12 36  1  0  0  0  0
 12 37  1  0  0  0  0
 13 38  1  0  0  0  0
 13 39  1  0  0  0  0
 14 17  1  0  0  0  0
 14 40  1  0  0  0  0
 14 41  1  0  0  0  0
 15 42  1  0  0  0  0
 15 43  1  0  0  0  0
 16 18  1  0  0  0  0
 17 44  1  0  0  0  0
 17 45  1  0  0  0  0
 18 19  2  0  0  0  0
 18 46  1  0  0  0  0
 19 22  1  0  0  0  0
 19 48  1  0  0  0  0
 20 22  2  0  0  0  0
 20 49  1  0  0  0  0
 21 23  1  0  0  0  0
 21 50  1  0  0  0  0
 21 51  1  0  0  0  0
 22 52  1  0  0  0  0
 23 24  2  0  0  0  0
 24 25  1  0  0  0  0
 25 26  2  0  0  0  0
 25 53  1  0  0  0  0
 26 54  1  0  0  0  0
 27 55  1  0  0  0  0
 27 56  1  0  0  0  0
 27 57  1  0  0  0  0
M  END
