DB14669
 OpenBabel07062211533D

 62 65  0  0  1  0  0  0  0  0999 V2000
    7.1496   -0.6769   -0.0343 P   0  0  0  0  0  0  0  0  0  0  0  0
   -2.2851   -0.4508    1.5877 F   0  0  0  0  0  0  0  0  0  0  0  0
    2.1032   -0.5445    1.7265 O   0  0  0  0  0  0  0  0  0  0  0  0
   -1.6252   -2.0585   -1.5588 O   0  0  0  0  0  0  0  0  0  0  0  0
    3.0566   -1.6383   -1.1857 O   0  0  0  0  0  0  0  0  0  0  0  0
    5.6139   -0.8474   -0.5255 O   0  0  0  0  0  0  0  0  0  0  0  0
   -7.0878   -0.2898    2.4263 O   0  0  0  0  0  0  0  0  0  0  0  0
    7.2652   -1.6922    1.2191 O   0  0  0  0  0  0  0  0  0  0  0  0
    7.1497    0.7805    0.6665 O   0  0  0  0  0  0  0  0  0  0  0  0
    8.1809   -0.8637   -1.1085 O   0  0  0  0  0  0  0  0  0  0  0  0
    0.6932   -0.4080   -0.2749 C   0  0  1  0  0  0  0  0  0  0  0  0
   -0.1142    0.7941    0.2625 C   0  0  2  0  0  0  0  0  0  0  0  0
   -1.5622    0.8344   -0.2499 C   0  0  1  0  0  0  0  0  0  0  0  0
   -2.3020   -0.4719    0.2013 C   0  0  1  0  0  0  0  0  0  0  0  0
    2.0857   -0.1064    0.3615 C   0  0  1  0  0  0  0  0  0  0  0  0
    0.8021    1.9792   -0.0260 C   0  0  0  0  0  0  0  0  0  0  0  0
   -0.0116   -1.6905    0.2162 C   0  0  0  0  0  0  0  0  0  0  0  0
    2.2096    1.4506    0.3525 C   0  0  2  0  0  0  0  0  0  0  0  0
   -1.5053   -1.7566   -0.1775 C   0  0  2  0  0  0  0  0  0  0  0  0
   -3.8288   -0.4587   -0.2038 C   0  0  1  0  0  0  0  0  0  0  0  0
   -2.2810    2.0909    0.2757 C   0  0  0  0  0  0  0  0  0  0  0  0
    0.8161   -0.4213   -1.8239 C   0  0  0  0  0  0  0  0  0  0  0  0
   -3.7555    2.1168   -0.1082 C   0  0  0  0  0  0  0  0  0  0  0  0
   -4.4344    0.8446    0.3307 C   0  0  0  0  0  0  0  0  0  0  0  0
    3.2252   -0.8850   -0.2281 C   0  0  0  0  0  0  0  0  0  0  0  0
    3.2750    2.0489   -0.5609 C   0  0  0  0  0  0  0  0  0  0  0  0
   -4.0768   -0.5091   -1.7289 C   0  0  0  0  0  0  0  0  0  0  0  0
   -4.5372   -1.6731    0.3794 C   0  0  0  0  0  0  0  0  0  0  0  0
   -5.4768    0.8920    1.1751 C   0  0  0  0  0  0  0  0  0  0  0  0
    4.5785   -0.6881    0.4213 C   0  0  0  0  0  0  0  0  0  0  0  0
   -5.5742   -1.6326    1.2216 C   0  0  0  0  0  0  0  0  0  0  0  0
   -6.1259   -0.3401    1.6674 C   0  0  0  0  0  0  0  0  0  0  0  0
   -0.1733    0.7149    1.3604 H   0  0  0  0  0  0  0  0  0  0  0  0
   -1.5685    0.9005   -1.3414 H   0  0  0  0  0  0  0  0  0  0  0  0
    0.7468    2.2716   -1.0810 H   0  0  0  0  0  0  0  0  0  0  0  0
    0.5420    2.8565    0.5758 H   0  0  0  0  0  0  0  0  0  0  0  0
    0.0237   -1.7501    1.3103 H   0  0  0  0  0  0  0  0  0  0  0  0
    0.5133   -2.5727   -0.1700 H   0  0  0  0  0  0  0  0  0  0  0  0
    2.4221    1.7975    1.3733 H   0  0  0  0  0  0  0  0  0  0  0  0
   -1.9177   -2.6067    0.3801 H   0  0  0  0  0  0  0  0  0  0  0  0
   -1.8011    2.9922   -0.1238 H   0  0  0  0  0  0  0  0  0  0  0  0
   -2.1893    2.1435    1.3687 H   0  0  0  0  0  0  0  0  0  0  0  0
    1.5687    0.2755   -2.2021 H   0  0  0  0  0  0  0  0  0  0  0  0
    1.0478   -1.4188   -2.2114 H   0  0  0  0  0  0  0  0  0  0  0  0
   -0.1161   -0.1417   -2.3197 H   0  0  0  0  0  0  0  0  0  0  0  0
   -3.8611    2.2393   -1.1922 H   0  0  0  0  0  0  0  0  0  0  0  0
   -4.2243    2.9984    0.3458 H   0  0  0  0  0  0  0  0  0  0  0  0
    4.2828    1.9532   -0.1543 H   0  0  0  0  0  0  0  0  0  0  0  0
    3.2622    1.6050   -1.5601 H   0  0  0  0  0  0  0  0  0  0  0  0
    3.1035    3.1252   -0.6816 H   0  0  0  0  0  0  0  0  0  0  0  0
   -3.4274    0.1734   -2.2850 H   0  0  0  0  0  0  0  0  0  0  0  0
   -3.9344   -1.5105   -2.1475 H   0  0  0  0  0  0  0  0  0  0  0  0
   -5.1118   -0.2300   -1.9684 H   0  0  0  0  0  0  0  0  0  0  0  0
    2.0536   -1.5151    1.7474 H   0  0  0  0  0  0  0  0  0  0  0  0
   -4.1897   -2.6557    0.0680 H   0  0  0  0  0  0  0  0  0  0  0  0
   -2.2360   -2.8101   -1.6444 H   0  0  0  0  0  0  0  0  0  0  0  0
   -5.8734    1.8332    1.5413 H   0  0  0  0  0  0  0  0  0  0  0  0
    4.6743   -1.4681    1.1847 H   0  0  0  0  0  0  0  0  0  0  0  0
    4.6622    0.2728    0.9260 H   0  0  0  0  0  0  0  0  0  0  0  0
   -6.0393   -2.5405    1.5878 H   0  0  0  0  0  0  0  0  0  0  0  0
    8.1387   -1.8215    1.6460 H   0  0  0  0  0  0  0  0  0  0  0  0
    8.0010    1.1607    0.9709 H   0  0  0  0  0  0  0  0  0  0  0  0
  1  6  1  0  0  0  0
  1  8  1  0  0  0  0
  1  9  1  0  0  0  0
  1 10  2  0  0  0  0
  2 14  1  0  0  0  0
  3 15  1  0  0  0  0
  3 54  1  0  0  0  0
  4 19  1  0  0  0  0
  4 56  1  0  0  0  0
  5 25  2  0  0  0  0
  6 30  1  0  0  0  0
  7 32  2  0  0  0  0
  8 61  1  0  0  0  0
  9 62  1  0  0  0  0
 11 12  1  1  0  0  0
 11 17  1  0  0  0  0
 11 22  1  0  0  0  0
 12 13  1  6  0  0  0
 12 16  1  0  0  0  0
 12 33  1  0  0  0  0
 13 14  1  1  0  0  0
 13 21  1  0  0  0  0
 13 34  1  0  0  0  0
 14 19  1  6  0  0  0
 15 11  1  6  0  0  0
 15 25  1  0  0  0  0
 16 18  1  0  0  0  0
 16 35  1  0  0  0  0
 16 36  1  0  0  0  0
 17 19  1  0  0  0  0
 17 37  1  0  0  0  0
 17 38  1  0  0  0  0
 18 15  1  6  0  0  0
 18 26  1  0  0  0  0
 18 39  1  0  0  0  0
 19 40  1  1  0  0  0
 20 14  1  1  0  0  0
 20 24  1  0  0  0  0
 20 27  1  0  0  0  0
 20 28  1  0  0  0  0
 21 23  1  0  0  0  0
 21 41  1  0  0  0  0
 21 42  1  0  0  0  0
 22 43  1  0  0  0  0
 22 44  1  0  0  0  0
 22 45  1  0  0  0  0
 23 24  1  0  0  0  0
 23 46  1  0  0  0  0
 23 47  1  0  0  0  0
 24 29  2  0  0  0  0
 25 30  1  0  0  0  0
 26 48  1  0  0  0  0
 26 49  1  0  0  0  0
 26 50  1  0  0  0  0
 27 51  1  0  0  0  0
 27 52  1  0  0  0  0
 27 53  1  0  0  0  0
 28 31  2  0  0  0  0
 28 55  1  0  0  0  0
 29 32  1  0  0  0  0
 29 57  1  0  0  0  0
 30 58  1  0  0  0  0
 30 59  1  0  0  0  0
 31 32  1  0  0  0  0
 31 60  1  0  0  0  0
M  END
