DB14677
 OpenBabel07062211533D

 68 71  0  0  1  0  0  0  0  0999 V2000
    2.4277   -0.9936    0.5766 O   0  0  0  0  0  0  0  0  0  0  0  0
    3.2858   -3.5099   -1.3339 O   0  0  0  0  0  0  0  0  0  0  0  0
   -6.6419    2.5323    1.4701 O   0  0  0  0  0  0  0  0  0  0  0  0
    4.5601   -1.2293   -0.2704 O   0  0  0  0  0  0  0  0  0  0  0  0
    0.3570   -1.8081   -0.4565 C   0  0  1  0  0  0  0  0  0  0  0  0
    0.0194   -0.3896   -0.9734 C   0  0  2  0  0  0  0  0  0  0  0  0
   -1.4861   -0.1515   -1.1218 C   0  0  1  0  0  0  0  0  0  0  0  0
   -2.1666   -0.3347    0.2660 C   0  0  2  0  0  0  0  0  0  0  0  0
    1.9050   -1.7427   -0.5164 C   0  0  1  0  0  0  0  0  0  0  0  0
   -0.2692   -1.9520    0.9403 C   0  0  0  0  0  0  0  0  0  0  0  0
    0.9095   -0.2383   -2.2034 C   0  0  0  0  0  0  0  0  0  0  0  0
   -1.7850   -1.6857    0.9219 C   0  0  0  0  0  0  0  0  0  0  0  0
    2.2021   -0.9962   -1.8361 C   0  0  0  0  0  0  0  0  0  0  0  0
   -3.7099   -0.1341    0.1649 C   0  0  2  0  0  0  0  0  0  0  0  0
   -1.7938    1.2475   -1.6706 C   0  0  0  0  0  0  0  0  0  0  0  0
   -0.1687   -2.9431   -1.3784 C   0  0  0  0  0  0  0  0  0  0  0  0
   -3.2973    1.4482   -1.8245 C   0  0  0  0  0  0  0  0  0  0  0  0
   -4.0485    1.1696   -0.5463 C   0  0  0  0  0  0  0  0  0  0  0  0
   -4.3559   -0.2074    1.5640 C   0  0  0  0  0  0  0  0  0  0  0  0
    2.5747   -3.0817   -0.4262 C   0  0  0  0  0  0  0  0  0  0  0  0
   -5.7891    0.2943    1.5728 C   0  0  0  0  0  0  0  0  0  0  0  0
   -4.9850    2.0327   -0.1210 C   0  0  0  0  0  0  0  0  0  0  0  0
    2.3359   -3.8745    0.8303 C   0  0  0  0  0  0  0  0  0  0  0  0
   -5.8497    1.7000    1.0343 C   0  0  0  0  0  0  0  0  0  0  0  0
    3.7841   -0.8091    0.5769 C   0  0  0  0  0  0  0  0  0  0  0  0
    4.1720    0.0280    1.7756 C   0  0  0  0  0  0  0  0  0  0  0  0
    3.4441    1.3710    1.8332 C   0  0  0  0  0  0  0  0  0  0  0  0
    3.7167    2.2382    0.6002 C   0  0  0  0  0  0  0  0  0  0  0  0
    3.0031    3.5863    0.7032 C   0  0  0  0  0  0  0  0  0  0  0  0
    3.3055    4.4700   -0.4965 C   0  0  0  0  0  0  0  0  0  0  0  0
    0.3822    0.3489   -0.2394 H   0  0  0  0  0  0  0  0  0  0  0  0
   -1.9066   -0.8778   -1.8277 H   0  0  0  0  0  0  0  0  0  0  0  0
   -1.7733    0.4536    0.9269 H   0  0  0  0  0  0  0  0  0  0  0  0
   -0.1087   -2.9521    1.3524 H   0  0  0  0  0  0  0  0  0  0  0  0
    0.1897   -1.2468    1.6442 H   0  0  0  0  0  0  0  0  0  0  0  0
    0.4454   -0.6796   -3.0925 H   0  0  0  0  0  0  0  0  0  0  0  0
    1.1174    0.8134   -2.4271 H   0  0  0  0  0  0  0  0  0  0  0  0
   -2.1336   -1.7073    1.9608 H   0  0  0  0  0  0  0  0  0  0  0  0
   -2.3022   -2.5045    0.4085 H   0  0  0  0  0  0  0  0  0  0  0  0
    2.4470   -1.6711   -2.6640 H   0  0  0  0  0  0  0  0  0  0  0  0
    3.0092   -0.2616   -1.7740 H   0  0  0  0  0  0  0  0  0  0  0  0
   -4.1259   -0.9483   -0.4454 H   0  0  0  0  0  0  0  0  0  0  0  0
   -1.3812    2.0160   -1.0044 H   0  0  0  0  0  0  0  0  0  0  0  0
   -1.3198    1.3852   -2.6493 H   0  0  0  0  0  0  0  0  0  0  0  0
    0.0308   -3.9304   -0.9504 H   0  0  0  0  0  0  0  0  0  0  0  0
    0.2938   -2.9245   -2.3704 H   0  0  0  0  0  0  0  0  0  0  0  0
   -1.2493   -2.8941   -1.5353 H   0  0  0  0  0  0  0  0  0  0  0  0
   -3.6748    0.7701   -2.6007 H   0  0  0  0  0  0  0  0  0  0  0  0
   -3.4830    2.4677   -2.1837 H   0  0  0  0  0  0  0  0  0  0  0  0
   -4.3467   -1.2403    1.9302 H   0  0  0  0  0  0  0  0  0  0  0  0
   -3.7681    0.3896    2.2744 H   0  0  0  0  0  0  0  0  0  0  0  0
   -6.4389   -0.3429    0.9634 H   0  0  0  0  0  0  0  0  0  0  0  0
   -6.1692    0.2939    2.6001 H   0  0  0  0  0  0  0  0  0  0  0  0
   -5.1940    2.9611   -0.6414 H   0  0  0  0  0  0  0  0  0  0  0  0
    3.1925   -4.5373    0.9899 H   0  0  0  0  0  0  0  0  0  0  0  0
    1.4412   -4.4900    0.7305 H   0  0  0  0  0  0  0  0  0  0  0  0
    2.2620   -3.2309    1.7093 H   0  0  0  0  0  0  0  0  0  0  0  0
    5.2550    0.1936    1.7355 H   0  0  0  0  0  0  0  0  0  0  0  0
    3.9694   -0.5578    2.6791 H   0  0  0  0  0  0  0  0  0  0  0  0
    3.7680    1.9050    2.7347 H   0  0  0  0  0  0  0  0  0  0  0  0
    2.3639    1.2087    1.9326 H   0  0  0  0  0  0  0  0  0  0  0  0
    4.7969    2.3997    0.4993 H   0  0  0  0  0  0  0  0  0  0  0  0
    3.3797    1.7256   -0.3075 H   0  0  0  0  0  0  0  0  0  0  0  0
    1.9203    3.4290    0.7720 H   0  0  0  0  0  0  0  0  0  0  0  0
    3.3150    4.1048    1.6172 H   0  0  0  0  0  0  0  0  0  0  0  0
    4.3784    4.6731   -0.5739 H   0  0  0  0  0  0  0  0  0  0  0  0
    2.9775    3.9940   -1.4262 H   0  0  0  0  0  0  0  0  0  0  0  0
    2.7840    5.4277   -0.4028 H   0  0  0  0  0  0  0  0  0  0  0  0
  1  9  1  0  0  0  0
  1 25  1  0  0  0  0
  2 20  2  0  0  0  0
  3 24  2  0  0  0  0
  4 25  2  0  0  0  0
  5  6  1  6  0  0  0
  5 10  1  0  0  0  0
  5 16  1  0  0  0  0
  6  7  1  6  0  0  0
  6 11  1  0  0  0  0
  6 31  1  0  0  0  0
  7  8  1  1  0  0  0
  7 15  1  0  0  0  0
  7 32  1  0  0  0  0
  8 12  1  0  0  0  0
  8 14  1  6  0  0  0
  8 33  1  0  0  0  0
  9  5  1  1  0  0  0
  9 13  1  0  0  0  0
  9 20  1  0  0  0  0
 10 12  1  0  0  0  0
 10 34  1  0  0  0  0
 10 35  1  0  0  0  0
 11 13  1  0  0  0  0
 11 36  1  0  0  0  0
 11 37  1  0  0  0  0
 12 38  1  0  0  0  0
 12 39  1  0  0  0  0
 13 40  1  0  0  0  0
 13 41  1  0  0  0  0
 14 18  1  0  0  0  0
 14 19  1  0  0  0  0
 14 42  1  6  0  0  0
 15 17  1  0  0  0  0
 15 43  1  0  0  0  0
 15 44  1  0  0  0  0
 16 45  1  0  0  0  0
 16 46  1  0  0  0  0
 16 47  1  0  0  0  0
 17 18  1  0  0  0  0
 17 48  1  0  0  0  0
 17 49  1  0  0  0  0
 18 22  2  0  0  0  0
 19 21  1  0  0  0  0
 19 50  1  0  0  0  0
 19 51  1  0  0  0  0
 20 23  1  0  0  0  0
 21 24  1  0  0  0  0
 21 52  1  0  0  0  0
 21 53  1  0  0  0  0
 22 24  1  0  0  0  0
 22 54  1  0  0  0  0
 23 55  1  0  0  0  0
 23 56  1  0  0  0  0
 23 57  1  0  0  0  0
 25 26  1  0  0  0  0
 26 27  1  0  0  0  0
 26 58  1  0  0  0  0
 26 59  1  0  0  0  0
 27 28  1  0  0  0  0
 27 60  1  0  0  0  0
 27 61  1  0  0  0  0
 28 29  1  0  0  0  0
 28 62  1  0  0  0  0
 28 63  1  0  0  0  0
 29 30  1  0  0  0  0
 29 64  1  0  0  0  0
 29 65  1  0  0  0  0
 30 66  1  0  0  0  0
 30 67  1  0  0  0  0
 30 68  1  0  0  0  0
M  END
