DB14914
 OpenBabel07062211533D

 30 33  0  0  0  0  0  0  0  0999 V2000
   -6.8091    0.2463    0.1908 F   0  0  0  0  0  0  0  0  0  0  0  0
    1.9307    1.4785    0.2098 N   0  0  0  0  0  0  0  0  0  0  0  0
    5.2317   -0.9324   -0.1439 N   0  0  0  0  0  0  0  0  0  0  0  0
   -4.9379   -1.0402    0.5719 N   0  0  0  0  0  0  0  0  0  0  0  0
    1.4550   -0.6817   -0.0752 C   0  0  0  0  0  0  0  0  0  0  0  0
    0.8927    0.5832    0.0998 C   0  0  0  0  0  0  0  0  0  0  0  0
    2.8764   -0.5212   -0.0672 C   0  0  0  0  0  0  0  0  0  0  0  0
    3.1419    0.8354    0.1123 C   0  0  0  0  0  0  0  0  0  0  0  0
   -0.4898    0.7978    0.1421 C   0  0  0  0  0  0  0  0  0  0  0  0
   -1.3228   -0.3153    0.0009 C   0  0  0  0  0  0  0  0  0  0  0  0
    0.5930   -1.7896   -0.2157 C   0  0  0  0  0  0  0  0  0  0  0  0
   -0.7917   -1.5908   -0.1754 C   0  0  0  0  0  0  0  0  0  0  0  0
    3.9604   -1.3977   -0.1952 C   0  0  0  0  0  0  0  0  0  0  0  0
    4.4364    1.3438    0.1686 C   0  0  0  0  0  0  0  0  0  0  0  0
   -2.7593   -0.1382    0.0380 C   0  0  0  0  0  0  0  0  0  0  0  0
    5.4349    0.3928    0.0322 C   0  0  0  0  0  0  0  0  0  0  0  0
   -3.3476    1.0437   -0.3987 C   0  0  0  0  0  0  0  0  0  0  0  0
   -3.5910   -1.1406    0.5102 C   0  0  0  0  0  0  0  0  0  0  0  0
   -4.7301    1.1847   -0.3507 C   0  0  0  0  0  0  0  0  0  0  0  0
   -5.4737    0.1230    0.1387 C   0  0  0  0  0  0  0  0  0  0  0  0
    1.8182    2.4738    0.3444 H   0  0  0  0  0  0  0  0  0  0  0  0
   -0.8643    1.8024    0.3082 H   0  0  0  0  0  0  0  0  0  0  0  0
    0.9928   -2.7894   -0.3603 H   0  0  0  0  0  0  0  0  0  0  0  0
   -1.4192   -2.4673   -0.3166 H   0  0  0  0  0  0  0  0  0  0  0  0
    3.8467   -2.4658   -0.3376 H   0  0  0  0  0  0  0  0  0  0  0  0
    4.6475    2.3960    0.3079 H   0  0  0  0  0  0  0  0  0  0  0  0
    6.4789    0.6908    0.0629 H   0  0  0  0  0  0  0  0  0  0  0  0
   -2.7706    1.8676   -0.8090 H   0  0  0  0  0  0  0  0  0  0  0  0
   -3.2192   -2.0837    0.8982 H   0  0  0  0  0  0  0  0  0  0  0  0
   -5.2109    2.0944   -0.6914 H   0  0  0  0  0  0  0  0  0  0  0  0
  1 20  1  0  0  0  0
  2  6  1  0  0  0  0
  2  8  2  0  0  0  0
  2 21  1  0  0  0  0
  3 13  2  0  0  0  0
  3 16  1  0  0  0  0
  4 18  2  0  0  0  0
  4 20  1  0  0  0  0
  5  6  1  0  0  0  0
  5  7  2  0  0  0  0
  5 11  2  0  0  0  0
  6  9  2  0  0  0  0
  7  8  1  0  0  0  0
  7 13  1  0  0  0  0
  8 14  1  0  0  0  0
  9 10  1  0  0  0  0
  9 22  1  0  0  0  0
 10 12  2  0  0  0  0
 10 15  1  0  0  0  0
 11 12  1  0  0  0  0
 11 23  1  0  0  0  0
 12 24  1  0  0  0  0
 13 25  1  0  0  0  0
 14 16  2  0  0  0  0
 14 26  1  0  0  0  0
 15 17  2  0  0  0  0
 15 18  1  0  0  0  0
 16 27  1  0  0  0  0
 17 19  1  0  0  0  0
 17 28  1  0  0  0  0
 18 29  1  0  0  0  0
 19 20  2  0  0  0  0
 19 30  1  0  0  0  0
M  END
