DB14845
 OpenBabel07062211533D

 53 57  0  0  0  0  0  0  0  0999 V2000
    5.4867   -2.8625    0.6779 S   0  0  0  0  0  0  0  0  0  0  0  0
   -6.6130   -0.8526   -0.2748 O   0  0  0  0  0  0  0  0  0  0  0  0
    5.2126   -4.2813    0.5643 O   0  0  0  0  0  0  0  0  0  0  0  0
    6.6350   -2.3800    1.4198 O   0  0  0  0  0  0  0  0  0  0  0  0
    4.1471   -0.2214   -0.3439 N   0  0  0  0  0  0  0  0  0  0  0  0
   -4.2652   -1.0377   -0.4061 N   0  0  0  0  0  0  0  0  0  0  0  0
   -2.5762    1.9429   -0.0699 N   0  0  0  0  0  0  0  0  0  0  0  0
   -2.5277    0.5958   -0.2550 N   0  0  0  0  0  0  0  0  0  0  0  0
   -4.7006    1.2717   -0.0690 N   0  0  0  0  0  0  0  0  0  0  0  0
   -5.7171   -2.9885   -0.6093 C   0  0  0  0  0  0  0  0  0  0  0  0
   -6.4794   -3.7961    0.3998 C   0  0  0  0  0  0  0  0  0  0  0  0
   -4.9858   -3.9159    0.3166 C   0  0  0  0  0  0  0  0  0  0  0  0
   -5.5905   -1.5103   -0.4113 C   0  0  0  0  0  0  0  0  0  0  0  0
    4.0658   -0.5634    1.0866 C   0  0  0  0  0  0  0  0  0  0  0  0
    5.4190   -0.6620   -0.9423 C   0  0  0  0  0  0  0  0  0  0  0  0
    5.5510   -2.1803   -0.9613 C   0  0  0  0  0  0  0  0  0  0  0  0
    4.0314   -2.0694    1.3180 C   0  0  0  0  0  0  0  0  0  0  0  0
    3.9894    1.2249   -0.5195 C   0  0  0  0  0  0  0  0  0  0  0  0
    2.5528    1.6532   -0.3794 C   0  0  0  0  0  0  0  0  0  0  0  0
   -3.8149    0.2570   -0.2485 C   0  0  0  0  0  0  0  0  0  0  0  0
    2.1224    2.2797    0.7903 C   0  0  0  0  0  0  0  0  0  0  0  0
    1.6524    1.4241   -1.4198 C   0  0  0  0  0  0  0  0  0  0  0  0
   -0.1088    2.4480   -0.1211 C   0  0  0  0  0  0  0  0  0  0  0  0
   -1.5150    2.8668    0.0160 C   0  0  0  0  0  0  0  0  0  0  0  0
    0.7918    2.6771    0.9193 C   0  0  0  0  0  0  0  0  0  0  0  0
    0.3217    1.8214   -1.2906 C   0  0  0  0  0  0  0  0  0  0  0  0
   -3.9205    2.3231    0.0455 C   0  0  0  0  0  0  0  0  0  0  0  0
   -1.8118    4.1682    0.2159 C   0  0  0  0  0  0  0  0  0  0  0  0
   -4.2075    3.6994    0.2565 C   0  0  0  0  0  0  0  0  0  0  0  0
   -3.1980    4.5832    0.3396 C   0  0  0  0  0  0  0  0  0  0  0  0
   -5.8150   -3.2957   -1.6456 H   0  0  0  0  0  0  0  0  0  0  0  0
   -4.5753   -4.8263   -0.1034 H   0  0  0  0  0  0  0  0  0  0  0  0
   -4.4073   -3.5017    1.1332 H   0  0  0  0  0  0  0  0  0  0  0  0
   -6.8947   -3.2944    1.2652 H   0  0  0  0  0  0  0  0  0  0  0  0
   -7.0726   -4.6269    0.0374 H   0  0  0  0  0  0  0  0  0  0  0  0
    4.9032   -0.1177    1.6393 H   0  0  0  0  0  0  0  0  0  0  0  0
    3.1446   -0.1698    1.5286 H   0  0  0  0  0  0  0  0  0  0  0  0
    5.4725   -0.3240   -1.9847 H   0  0  0  0  0  0  0  0  0  0  0  0
    6.2700   -0.2132   -0.4138 H   0  0  0  0  0  0  0  0  0  0  0  0
    6.5062   -2.4825   -1.4016 H   0  0  0  0  0  0  0  0  0  0  0  0
    4.7424   -2.6388   -1.5404 H   0  0  0  0  0  0  0  0  0  0  0  0
    3.1651   -2.5240    0.8255 H   0  0  0  0  0  0  0  0  0  0  0  0
    3.9813   -2.2983    2.3870 H   0  0  0  0  0  0  0  0  0  0  0  0
    4.6381    1.7898    0.1641 H   0  0  0  0  0  0  0  0  0  0  0  0
    4.3041    1.5271   -1.5285 H   0  0  0  0  0  0  0  0  0  0  0  0
   -3.5223   -1.7196   -0.5374 H   0  0  0  0  0  0  0  0  0  0  0  0
    2.8132    2.4643    1.6088 H   0  0  0  0  0  0  0  0  0  0  0  0
    1.9762    0.9382   -2.3366 H   0  0  0  0  0  0  0  0  0  0  0  0
    0.4748    3.1585    1.8415 H   0  0  0  0  0  0  0  0  0  0  0  0
   -0.3634    1.6404   -2.1154 H   0  0  0  0  0  0  0  0  0  0  0  0
   -1.0529    4.9410    0.2826 H   0  0  0  0  0  0  0  0  0  0  0  0
   -5.2386    4.0212    0.3494 H   0  0  0  0  0  0  0  0  0  0  0  0
   -3.3962    5.6374    0.5006 H   0  0  0  0  0  0  0  0  0  0  0  0
  1  3  2  0  0  0  0
  1  4  2  0  0  0  0
  1 16  1  0  0  0  0
  1 17  1  0  0  0  0
  2 13  2  0  0  0  0
  5 14  1  0  0  0  0
  5 15  1  0  0  0  0
  5 18  1  0  0  0  0
  6 13  1  0  0  0  0
  6 20  1  0  0  0  0
  6 46  1  0  0  0  0
  7  8  1  0  0  0  0
  7 24  2  0  0  0  0
  7 27  1  0  0  0  0
  8 20  2  0  0  0  0
  9 20  1  0  0  0  0
  9 27  2  0  0  0  0
 10 11  1  0  0  0  0
 10 12  1  0  0  0  0
 10 13  1  0  0  0  0
 10 31  1  0  0  0  0
 11 12  1  0  0  0  0
 11 34  1  0  0  0  0
 11 35  1  0  0  0  0
 12 32  1  0  0  0  0
 12 33  1  0  0  0  0
 14 17  1  0  0  0  0
 14 36  1  0  0  0  0
 14 37  1  0  0  0  0
 15 16  1  0  0  0  0
 15 38  1  0  0  0  0
 15 39  1  0  0  0  0
 16 40  1  0  0  0  0
 16 41  1  0  0  0  0
 17 42  1  0  0  0  0
 17 43  1  0  0  0  0
 18 19  1  0  0  0  0
 18 44  1  0  0  0  0
 18 45  1  0  0  0  0
 19 21  2  0  0  0  0
 19 22  1  0  0  0  0
 21 25  1  0  0  0  0
 21 47  1  0  0  0  0
 22 26  2  0  0  0  0
 22 48  1  0  0  0  0
 23 24  1  0  0  0  0
 23 25  2  0  0  0  0
 23 26  1  0  0  0  0
 24 28  1  0  0  0  0
 25 49  1  0  0  0  0
 26 50  1  0  0  0  0
 27 29  2  0  0  0  0
 28 30  2  0  0  0  0
 28 51  1  0  0  0  0
 29 30  1  0  0  0  0
 29 52  1  0  0  0  0
 30 53  1  0  0  0  0
M  END
