DB14879
 OpenBabel07062211533D

 84 88  0  0  1  0  0  0  0  0999 V2000
    3.1252    3.5931   -0.1987 Cl  0  0  0  0  0  0  0  0  0  0  0  0
   -1.6667   -1.5001    1.9399 S   0  0  0  0  0  0  0  0  0  0  0  0
   -8.5815    1.7577    3.1210 S   0  0  0  0  0  0  0  0  0  0  0  0
   -1.2759    1.8049   -1.3198 O   0  0  0  0  0  0  0  0  0  0  0  0
    0.5088   -1.4475   -2.6368 O   0  0  0  0  0  0  0  0  0  0  0  0
    1.5896    0.4220   -1.8818 O   0  0  0  0  0  0  0  0  0  0  0  0
    4.4656    1.4556    1.6370 O   0  0  0  0  0  0  0  0  0  0  0  0
   -4.1189    2.8196   -0.1816 O   0  0  0  0  0  0  0  0  0  0  0  0
   -5.1594    0.2284   -1.5251 O   0  0  0  0  0  0  0  0  0  0  0  0
    4.6411    5.8498   -1.3947 O   0  0  0  0  0  0  0  0  0  0  0  0
    7.3689    5.9567   -1.7597 O   0  0  0  0  0  0  0  0  0  0  0  0
   -4.9731   -1.5417   -4.6273 O   0  0  0  0  0  0  0  0  0  0  0  0
   -3.4640   -0.3437   -3.4416 O   0  0  0  0  0  0  0  0  0  0  0  0
    2.9550   -2.7569    0.2874 N   0  3  0  0  0  0  0  0  0  0  0  0
   -0.5532    0.1065    0.1421 N   0  0  0  0  0  0  0  0  0  0  0  0
    5.2975    0.1786   -0.1118 N   0  0  0  0  0  0  0  0  0  0  0  0
   -3.3916    0.9287    1.0053 N   0  0  0  0  0  0  0  0  0  0  0  0
   -6.1436    0.4370   -0.5487 N   0  0  0  0  0  0  0  0  0  0  0  0
   -6.1391    2.3890    2.5566 N   0  0  0  0  0  0  0  0  0  0  0  0
   -6.9796    3.3174    4.5618 N   0  0  0  0  0  0  0  0  0  0  0  0
    3.0122   -2.8433    1.8264 C   0  0  0  0  0  0  0  0  0  0  0  0
    3.9160   -3.8470   -0.2299 C   0  0  0  0  0  0  0  0  0  0  0  0
    1.5391   -3.0154   -0.2042 C   0  0  0  0  0  0  0  0  0  0  0  0
    4.2228   -3.7078    2.1173 C   0  0  0  0  0  0  0  0  0  0  0  0
    4.2080   -4.7085    0.9829 C   0  0  0  0  0  0  0  0  0  0  0  0
    3.4076   -1.3848   -0.1879 C   0  0  0  0  0  0  0  0  0  0  0  0
    0.5605   -1.9718    0.2776 C   0  0  0  0  0  0  0  0  0  0  0  0
    4.7962   -1.0881    0.3471 C   0  0  0  0  0  0  0  0  0  0  0  0
   -0.9969    0.1283    1.5236 C   0  0  1  0  0  0  0  0  0  0  0  0
    0.2814   -0.8259   -0.3847 C   0  0  0  0  0  0  0  0  0  0  0  0
   -0.0950   -2.3617    1.5988 C   0  0  0  0  0  0  0  0  0  0  0  0
   -1.9736    1.2522    1.0926 C   0  0  1  0  0  0  0  0  0  0  0  0
   -1.2315    1.1961   -0.2764 C   0  0  0  0  0  0  0  0  0  0  0  0
    0.8525   -0.5931   -1.7785 C   0  0  0  0  0  0  0  0  0  0  0  0
    5.0876    1.3647    0.5819 C   0  0  0  0  0  0  0  0  0  0  0  0
   -4.3141    1.7510    0.3750 C   0  0  0  0  0  0  0  0  0  0  0  0
    5.6478    2.5928   -0.0384 C   0  0  0  0  0  0  0  0  0  0  0  0
   -5.7169    1.2048    0.4084 C   0  0  0  0  0  0  0  0  0  0  0  0
    4.8406    3.6614   -0.4282 C   0  0  0  0  0  0  0  0  0  0  0  0
    7.0284    2.6565   -0.2273 C   0  0  0  0  0  0  0  0  0  0  0  0
   -6.6013    1.5649    1.5490 C   0  0  0  0  0  0  0  0  0  0  0  0
    5.4139    4.7939   -1.0067 C   0  0  0  0  0  0  0  0  0  0  0  0
    7.6018    3.7887   -0.8058 C   0  0  0  0  0  0  0  0  0  0  0  0
    6.7946    4.8575   -1.1955 C   0  0  0  0  0  0  0  0  0  0  0  0
   -7.9007    1.1223    1.6808 C   0  0  0  0  0  0  0  0  0  0  0  0
   -5.7046   -0.6154   -2.5273 C   0  0  0  0  0  0  0  0  0  0  0  0
   -7.0981    2.5593    3.4394 C   0  0  0  0  0  0  0  0  0  0  0  0
   -6.9078    0.0954   -3.1402 C   0  0  0  0  0  0  0  0  0  0  0  0
   -6.0846   -1.9409   -1.8741 C   0  0  0  0  0  0  0  0  0  0  0  0
   -4.5944   -0.8035   -3.5528 C   0  0  0  0  0  0  0  0  0  0  0  0
    2.1469   -3.4169    2.1670 H   0  0  0  0  0  0  0  0  0  0  0  0
    3.0099   -1.8524    2.2879 H   0  0  0  0  0  0  0  0  0  0  0  0
    4.8145   -3.4169   -0.6704 H   0  0  0  0  0  0  0  0  0  0  0  0
    3.4123   -4.4211   -1.0155 H   0  0  0  0  0  0  0  0  0  0  0  0
    1.5947   -3.0762   -1.2941 H   0  0  0  0  0  0  0  0  0  0  0  0
    1.2515   -4.0203    0.1308 H   0  0  0  0  0  0  0  0  0  0  0  0
    5.1550   -5.2472    0.8871 H   0  0  0  0  0  0  0  0  0  0  0  0
    5.1533   -3.1326    2.1142 H   0  0  0  0  0  0  0  0  0  0  0  0
    4.1458   -4.1968    3.0935 H   0  0  0  0  0  0  0  0  0  0  0  0
    3.4109   -5.4471    1.1302 H   0  0  0  0  0  0  0  0  0  0  0  0
    3.4041   -1.3896   -1.2823 H   0  0  0  0  0  0  0  0  0  0  0  0
    2.7382   -0.6241    0.2159 H   0  0  0  0  0  0  0  0  0  0  0  0
    4.8107   -1.0409    1.4388 H   0  0  0  0  0  0  0  0  0  0  0  0
    5.5611   -1.8031    0.0439 H   0  0  0  0  0  0  0  0  0  0  0  0
   -0.2143    0.4783    2.2084 H   0  0  0  0  0  0  0  0  0  0  0  0
   -0.3213   -3.4320    1.6204 H   0  0  0  0  0  0  0  0  0  0  0  0
    0.5594   -2.1224    2.4393 H   0  0  0  0  0  0  0  0  0  0  0  0
   -1.8093    2.1945    1.6282 H   0  0  0  0  0  0  0  0  0  0  0  0
    5.8055    0.1999   -0.9915 H   0  0  0  0  0  0  0  0  0  0  0  0
   -3.7368    0.0659    1.4194 H   0  0  0  0  0  0  0  0  0  0  0  0
    7.6725    1.8346    0.0752 H   0  0  0  0  0  0  0  0  0  0  0  0
    8.6789    3.8254   -0.9461 H   0  0  0  0  0  0  0  0  0  0  0  0
   -8.4739    0.4784    1.0284 H   0  0  0  0  0  0  0  0  0  0  0  0
    3.7129    5.6400   -1.1924 H   0  0  0  0  0  0  0  0  0  0  0  0
    8.3308    5.8213   -1.8101 H   0  0  0  0  0  0  0  0  0  0  0  0
   -7.7315    0.2232   -2.4294 H   0  0  0  0  0  0  0  0  0  0  0  0
   -7.3043   -0.4593   -3.9977 H   0  0  0  0  0  0  0  0  0  0  0  0
   -6.3930   -2.6781   -2.6234 H   0  0  0  0  0  0  0  0  0  0  0  0
   -6.9084   -1.8397   -1.1592 H   0  0  0  0  0  0  0  0  0  0  0  0
   -6.6306    1.0966   -3.4910 H   0  0  0  0  0  0  0  0  0  0  0  0
   -5.2339   -2.3612   -1.3245 H   0  0  0  0  0  0  0  0  0  0  0  0
   -6.1202    3.8078    4.7871 H   0  0  0  0  0  0  0  0  0  0  0  0
   -7.7455    3.4232    5.2189 H   0  0  0  0  0  0  0  0  0  0  0  0
   -4.2425   -1.6491   -5.2731 H   0  0  0  0  0  0  0  0  0  0  0  0
  1 39  1  0  0  0  0
  2 29  1  0  0  0  0
  2 31  1  0  0  0  0
  3 45  1  0  0  0  0
  3 47  1  0  0  0  0
  4 33  2  0  0  0  0
  5 34  2  0  0  0  0
  6 34  1  0  0  0  0
  7 35  2  0  0  0  0
  8 36  2  0  0  0  0
  9 18  1  0  0  0  0
  9 46  1  0  0  0  0
 10 42  1  0  0  0  0
 10 74  1  0  0  0  0
 11 44  1  0  0  0  0
 11 75  1  0  0  0  0
 12 50  1  0  0  0  0
 12 84  1  0  0  0  0
 13 50  2  0  0  0  0
 14 21  1  0  0  0  0
 14 22  1  0  0  0  0
 14 23  1  0  0  0  0
 14 26  1  0  0  0  0
 15 29  1  0  0  0  0
 15 30  1  0  0  0  0
 15 33  1  0  0  0  0
 16 28  1  0  0  0  0
 16 35  1  0  0  0  0
 16 69  1  0  0  0  0
 17 32  1  0  0  0  0
 17 36  1  0  0  0  0
 17 70  1  0  0  0  0
 18 38  2  0  0  0  0
 19 41  1  0  0  0  0
 19 47  2  0  0  0  0
 20 47  1  0  0  0  0
 20 82  1  0  0  0  0
 20 83  1  0  0  0  0
 21 24  1  0  0  0  0
 21 51  1  0  0  0  0
 21 52  1  0  0  0  0
 22 25  1  0  0  0  0
 22 53  1  0  0  0  0
 22 54  1  0  0  0  0
 23 27  1  0  0  0  0
 23 55  1  0  0  0  0
 23 56  1  0  0  0  0
 24 25  1  0  0  0  0
 24 58  1  0  0  0  0
 24 59  1  0  0  0  0
 25 57  1  0  0  0  0
 25 60  1  0  0  0  0
 26 28  1  0  0  0  0
 26 61  1  0  0  0  0
 26 62  1  0  0  0  0
 27 30  2  0  0  0  0
 27 31  1  0  0  0  0
 28 63  1  0  0  0  0
 28 64  1  0  0  0  0
 29 32  1  1  0  0  0
 29 65  1  0  0  0  0
 30 34  1  0  0  0  0
 31 66  1  0  0  0  0
 31 67  1  0  0  0  0
 32 33  1  0  0  0  0
 32 68  1  1  0  0  0
 35 37  1  0  0  0  0
 36 38  1  0  0  0  0
 37 39  2  0  0  0  0
 37 40  1  0  0  0  0
 38 41  1  0  0  0  0
 39 42  1  0  0  0  0
 40 43  2  0  0  0  0
 40 71  1  0  0  0  0
 41 45  2  0  0  0  0
 42 44  2  0  0  0  0
 43 44  1  0  0  0  0
 43 72  1  0  0  0  0
 45 73  1  0  0  0  0
 46 48  1  0  0  0  0
 46 49  1  0  0  0  0
 46 50  1  0  0  0  0
 48 76  1  0  0  0  0
 48 77  1  0  0  0  0
 48 80  1  0  0  0  0
 49 78  1  0  0  0  0
 49 79  1  0  0  0  0
 49 81  1  0  0  0  0
M  CHG  1  14   1
M  END
