DB14086
 OpenBabel07062211533D

 35 37  0  0  1  0  0  0  0  0999 V2000
    0.3375   -0.8398    0.3100 O   0  0  0  0  0  0  0  0  0  0  0  0
   -0.7096    2.6972    0.0269 O   0  0  0  0  0  0  0  0  0  0  0  0
    4.3670    1.7938   -0.2231 O   0  0  0  0  0  0  0  0  0  0  0  0
    4.5735   -2.9451    0.1500 O   0  0  0  0  0  0  0  0  0  0  0  0
   -4.1061   -0.9759   -2.3431 O   0  0  0  0  0  0  0  0  0  0  0  0
   -5.8815   -0.8714   -0.2078 O   0  0  0  0  0  0  0  0  0  0  0  0
    0.0484    1.5348   -0.2918 C   0  0  2  0  0  0  0  0  0  0  0  0
   -0.4076    0.3580    0.5823 C   0  0  1  0  0  0  0  0  0  0  0  0
    1.5230    1.8218   -0.0223 C   0  0  0  0  0  0  0  0  0  0  0  0
    2.3201    0.5536    0.0236 C   0  0  0  0  0  0  0  0  0  0  0  0
    1.6933   -0.6851    0.1968 C   0  0  0  0  0  0  0  0  0  0  0  0
   -1.8732    0.0280    0.3674 C   0  0  0  0  0  0  0  0  0  0  0  0
    3.7169    0.6031   -0.0796 C   0  0  0  0  0  0  0  0  0  0  0  0
    2.4500   -1.8597    0.2270 C   0  0  0  0  0  0  0  0  0  0  0  0
   -2.3256   -0.3265   -0.9015 C   0  0  0  0  0  0  0  0  0  0  0  0
   -2.7608    0.0816    1.4397 C   0  0  0  0  0  0  0  0  0  0  0  0
    4.4717   -0.5691   -0.0371 C   0  0  0  0  0  0  0  0  0  0  0  0
    3.8381   -1.8005    0.1122 C   0  0  0  0  0  0  0  0  0  0  0  0
   -3.6728   -0.6292   -1.0991 C   0  0  0  0  0  0  0  0  0  0  0  0
   -4.1079   -0.2211    1.2421 C   0  0  0  0  0  0  0  0  0  0  0  0
   -4.5640   -0.5765   -0.0272 C   0  0  0  0  0  0  0  0  0  0  0  0
   -0.0839    1.3107   -1.3574 H   0  0  0  0  0  0  0  0  0  0  0  0
   -0.2605    0.6108    1.6421 H   0  0  0  0  0  0  0  0  0  0  0  0
    1.6375    2.3520    0.9321 H   0  0  0  0  0  0  0  0  0  0  0  0
    1.8978    2.4944   -0.8037 H   0  0  0  0  0  0  0  0  0  0  0  0
    1.9514   -2.8189    0.3466 H   0  0  0  0  0  0  0  0  0  0  0  0
   -1.6334   -0.3804   -1.7379 H   0  0  0  0  0  0  0  0  0  0  0  0
   -0.3819    3.4223   -0.5321 H   0  0  0  0  0  0  0  0  0  0  0  0
   -2.4206    0.3570    2.4342 H   0  0  0  0  0  0  0  0  0  0  0  0
    5.5552   -0.5310   -0.1208 H   0  0  0  0  0  0  0  0  0  0  0  0
   -4.7914   -0.1763    2.0859 H   0  0  0  0  0  0  0  0  0  0  0  0
    5.3242    1.6308   -0.2776 H   0  0  0  0  0  0  0  0  0  0  0  0
    3.9732   -3.7025    0.2589 H   0  0  0  0  0  0  0  0  0  0  0  0
   -3.3528   -0.9583   -2.9582 H   0  0  0  0  0  0  0  0  0  0  0  0
   -6.3453   -0.7826    0.6425 H   0  0  0  0  0  0  0  0  0  0  0  0
  1  8  1  0  0  0  0
  1 11  1  0  0  0  0
  2  7  1  0  0  0  0
  2 28  1  0  0  0  0
  3 13  1  0  0  0  0
  3 32  1  0  0  0  0
  4 18  1  0  0  0  0
  4 33  1  0  0  0  0
  5 19  1  0  0  0  0
  5 34  1  0  0  0  0
  6 21  1  0  0  0  0
  6 35  1  0  0  0  0
  7  8  1  1  0  0  0
  7  9  1  0  0  0  0
  7 22  1  0  0  0  0
  8 12  1  0  0  0  0
  8 23  1  1  0  0  0
  9 10  1  0  0  0  0
  9 24  1  0  0  0  0
  9 25  1  0  0  0  0
 10 11  2  0  0  0  0
 10 13  1  0  0  0  0
 11 14  1  0  0  0  0
 12 15  2  0  0  0  0
 12 16  1  0  0  0  0
 13 17  2  0  0  0  0
 14 18  2  0  0  0  0
 14 26  1  0  0  0  0
 15 19  1  0  0  0  0
 15 27  1  0  0  0  0
 16 20  2  0  0  0  0
 16 29  1  0  0  0  0
 17 18  1  0  0  0  0
 17 30  1  0  0  0  0
 19 21  2  0  0  0  0
 20 21  1  0  0  0  0
 20 31  1  0  0  0  0
M  END
