DB14187
 OpenBabel07062211533D

 32 31  0  0  1  0  0  0  0  0999 V2000
   -3.9334    0.8252    0.9598 O   0  0  0  0  0  0  0  0  0  0  0  0
    5.7262   -0.1194    0.2062 O   0  0  0  0  0  0  0  0  0  0  0  0
   -0.3630    0.0355   -0.0954 C   0  0  0  0  0  0  0  0  0  0  0  0
    0.9551    0.5878    0.4615 C   0  0  0  0  0  0  0  0  0  0  0  0
   -1.5655    0.6721    0.6096 C   0  0  0  0  0  0  0  0  0  0  0  0
    2.2082    0.0419   -0.2560 C   0  0  1  0  0  0  0  0  0  0  0  0
   -2.9468    0.1387    0.1774 C   0  0  0  0  0  0  0  0  0  0  0  0
    3.4580    0.7568    0.2862 C   0  0  0  0  0  0  0  0  0  0  0  0
    2.3409   -1.4760   -0.0838 C   0  0  0  0  0  0  0  0  0  0  0  0
   -3.2475    0.4188   -1.2964 C   0  0  0  0  0  0  0  0  0  0  0  0
   -3.1127   -1.3514    0.4782 C   0  0  0  0  0  0  0  0  0  0  0  0
    4.7485    0.3330   -0.3794 C   0  0  0  0  0  0  0  0  0  0  0  0
   -0.4103    0.2309   -1.1720 H   0  0  0  0  0  0  0  0  0  0  0  0
   -0.3935   -1.0481    0.0473 H   0  0  0  0  0  0  0  0  0  0  0  0
    1.0184    0.3641    1.5343 H   0  0  0  0  0  0  0  0  0  0  0  0
    0.9433    1.6816    0.3686 H   0  0  0  0  0  0  0  0  0  0  0  0
   -1.5387    1.7597    0.4564 H   0  0  0  0  0  0  0  0  0  0  0  0
   -1.4622    0.5376    1.6952 H   0  0  0  0  0  0  0  0  0  0  0  0
    2.1254    0.2542   -1.3297 H   0  0  0  0  0  0  0  0  0  0  0  0
    3.5610    0.5819    1.3639 H   0  0  0  0  0  0  0  0  0  0  0  0
    3.3662    1.8389    0.1369 H   0  0  0  0  0  0  0  0  0  0  0  0
    2.3777   -1.7522    0.9753 H   0  0  0  0  0  0  0  0  0  0  0  0
    1.5022   -2.0053   -0.5456 H   0  0  0  0  0  0  0  0  0  0  0  0
    3.2491   -1.8551   -0.5634 H   0  0  0  0  0  0  0  0  0  0  0  0
   -2.5904   -0.1456   -1.9650 H   0  0  0  0  0  0  0  0  0  0  0  0
   -3.1375    1.4859   -1.5208 H   0  0  0  0  0  0  0  0  0  0  0  0
   -4.2848    0.1583   -1.5367 H   0  0  0  0  0  0  0  0  0  0  0  0
   -2.8949   -1.5626    1.5313 H   0  0  0  0  0  0  0  0  0  0  0  0
   -2.4639   -1.9751   -0.1438 H   0  0  0  0  0  0  0  0  0  0  0  0
   -4.1489   -1.6676    0.3094 H   0  0  0  0  0  0  0  0  0  0  0  0
   -3.8637    1.7752    0.7635 H   0  0  0  0  0  0  0  0  0  0  0  0
    4.7773    0.4806   -1.4731 H   0  0  0  0  0  0  0  0  0  0  0  0
  1  7  1  0  0  0  0
  1 31  1  0  0  0  0
  2 12  2  0  0  0  0
  3  4  1  0  0  0  0
  3  5  1  0  0  0  0
  3 13  1  0  0  0  0
  3 14  1  0  0  0  0
  4  6  1  0  0  0  0
  4 15  1  0  0  0  0
  4 16  1  0  0  0  0
  5  7  1  0  0  0  0
  5 17  1  0  0  0  0
  5 18  1  0  0  0  0
  6  8  1  0  0  0  0
  6  9  1  0  0  0  0
  6 19  1  6  0  0  0
  7 10  1  0  0  0  0
  7 11  1  0  0  0  0
  8 12  1  0  0  0  0
  8 20  1  0  0  0  0
  8 21  1  0  0  0  0
  9 22  1  0  0  0  0
  9 23  1  0  0  0  0
  9 24  1  0  0  0  0
 10 25  1  0  0  0  0
 10 26  1  0  0  0  0
 10 27  1  0  0  0  0
 11 28  1  0  0  0  0
 11 29  1  0  0  0  0
 11 30  1  0  0  0  0
 12 32  1  0  0  0  0
M  END
