DB14646
 OpenBabel07062211533D

 57 60  0  0  1  0  0  0  0  0999 V2000
   -2.3037   -0.9484    1.8814 O   0  0  0  0  0  0  0  0  0  0  0  0
    0.6771    2.4267   -0.9129 O   0  0  0  0  0  0  0  0  0  0  0  0
   -4.2296   -1.8582   -0.5686 O   0  0  0  0  0  0  0  0  0  0  0  0
   -5.4006    0.5467    0.0993 O   0  0  0  0  0  0  0  0  0  0  0  0
    6.5543    2.0442    2.0007 O   0  0  0  0  0  0  0  0  0  0  0  0
   -5.3062    2.8547    0.1354 O   0  0  0  0  0  0  0  0  0  0  0  0
   -0.9987   -0.5263   -0.1797 C   0  0  1  0  0  0  0  0  0  0  0  0
    0.1757   -1.3778    0.3621 C   0  0  2  0  0  0  0  0  0  0  0  0
    1.5374   -0.9611   -0.2146 C   0  0  1  0  0  0  0  0  0  0  0  0
    1.8143    0.5321    0.1600 C   0  0  1  0  0  0  0  0  0  0  0  0
   -2.1836   -1.2610    0.4969 C   0  0  1  0  0  0  0  0  0  0  0  0
   -0.2968   -2.8136    0.1466 C   0  0  0  0  0  0  0  0  0  0  0  0
   -0.7641    0.9244    0.2540 C   0  0  0  0  0  0  0  0  0  0  0  0
   -1.8201   -2.7572    0.3796 C   0  0  0  0  0  0  0  0  0  0  0  0
    3.2189    1.0316   -0.3327 C   0  0  1  0  0  0  0  0  0  0  0  0
    2.6606   -1.8744    0.2986 C   0  0  0  0  0  0  0  0  0  0  0  0
    0.5949    1.3912   -0.2553 C   0  0  0  0  0  0  0  0  0  0  0  0
   -1.1371   -0.5784   -1.7266 C   0  0  0  0  0  0  0  0  0  0  0  0
    4.0268   -1.4230   -0.2049 C   0  0  0  0  0  0  0  0  0  0  0  0
    4.2677    0.0217    0.1557 C   0  0  0  0  0  0  0  0  0  0  0  0
   -3.5379   -0.9681   -0.0764 C   0  0  0  0  0  0  0  0  0  0  0  0
    3.3119    1.1276   -1.8725 C   0  0  0  0  0  0  0  0  0  0  0  0
    3.5071    2.4230    0.2172 C   0  0  0  0  0  0  0  0  0  0  0  0
    5.3299    0.3524    0.9070 C   0  0  0  0  0  0  0  0  0  0  0  0
   -3.9950    0.4738   -0.0130 C   0  0  0  0  0  0  0  0  0  0  0  0
    4.5621    2.7562    0.9677 C   0  0  0  0  0  0  0  0  0  0  0  0
    5.5649    1.7438    1.3415 C   0  0  0  0  0  0  0  0  0  0  0  0
   -5.9378    1.8072    0.1656 C   0  0  0  0  0  0  0  0  0  0  0  0
   -7.4300    1.7299    0.2812 C   0  0  0  0  0  0  0  0  0  0  0  0
    0.2398   -1.2350    1.4534 H   0  0  0  0  0  0  0  0  0  0  0  0
    1.5064   -1.0650   -1.3049 H   0  0  0  0  0  0  0  0  0  0  0  0
    1.8244    0.5990    1.2608 H   0  0  0  0  0  0  0  0  0  0  0  0
    0.1830   -3.5093    0.8426 H   0  0  0  0  0  0  0  0  0  0  0  0
   -0.0774   -3.1602   -0.8696 H   0  0  0  0  0  0  0  0  0  0  0  0
   -0.7651    1.0419    1.3433 H   0  0  0  0  0  0  0  0  0  0  0  0
   -1.5243    1.5977   -0.1523 H   0  0  0  0  0  0  0  0  0  0  0  0
   -2.3086   -3.2626   -0.4608 H   0  0  0  0  0  0  0  0  0  0  0  0
   -2.0767   -3.3140    1.2884 H   0  0  0  0  0  0  0  0  0  0  0  0
    2.4886   -2.9060   -0.0300 H   0  0  0  0  0  0  0  0  0  0  0  0
    2.6596   -1.8871    1.3965 H   0  0  0  0  0  0  0  0  0  0  0  0
   -1.3159   -1.5925   -2.0974 H   0  0  0  0  0  0  0  0  0  0  0  0
   -1.9690    0.0417   -2.0741 H   0  0  0  0  0  0  0  0  0  0  0  0
   -0.2466   -0.2028   -2.2392 H   0  0  0  0  0  0  0  0  0  0  0  0
    4.0914   -1.5512   -1.2914 H   0  0  0  0  0  0  0  0  0  0  0  0
    4.7950   -2.0771    0.2254 H   0  0  0  0  0  0  0  0  0  0  0  0
    3.0200    0.1984   -2.3710 H   0  0  0  0  0  0  0  0  0  0  0  0
    2.6762    1.9211   -2.2789 H   0  0  0  0  0  0  0  0  0  0  0  0
    4.3377    1.3537   -2.1916 H   0  0  0  0  0  0  0  0  0  0  0  0
    2.8203    3.2256   -0.0379 H   0  0  0  0  0  0  0  0  0  0  0  0
   -2.9586   -1.5483    2.2779 H   0  0  0  0  0  0  0  0  0  0  0  0
    6.0472   -0.3898    1.2411 H   0  0  0  0  0  0  0  0  0  0  0  0
   -3.6735    0.9820   -0.9265 H   0  0  0  0  0  0  0  0  0  0  0  0
   -3.5584    0.9615    0.8634 H   0  0  0  0  0  0  0  0  0  0  0  0
    4.7116    3.7737    1.3096 H   0  0  0  0  0  0  0  0  0  0  0  0
   -7.7029    1.1940    1.1937 H   0  0  0  0  0  0  0  0  0  0  0  0
   -7.8438    1.2297   -0.5978 H   0  0  0  0  0  0  0  0  0  0  0  0
   -7.8431    2.7414    0.3340 H   0  0  0  0  0  0  0  0  0  0  0  0
  1 11  1  0  0  0  0
  1 50  1  0  0  0  0
  2 17  2  0  0  0  0
  3 21  2  0  0  0  0
  4 25  1  0  0  0  0
  4 28  1  0  0  0  0
  5 27  2  0  0  0  0
  6 28  2  0  0  0  0
  7  8  1  1  0  0  0
  7 13  1  0  0  0  0
  7 18  1  0  0  0  0
  8  9  1  6  0  0  0
  8 12  1  0  0  0  0
  8 30  1  0  0  0  0
  9 10  1  1  0  0  0
  9 16  1  0  0  0  0
  9 31  1  0  0  0  0
 10 15  1  6  0  0  0
 10 17  1  0  0  0  0
 10 32  1  0  0  0  0
 11  7  1  6  0  0  0
 11 14  1  0  0  0  0
 11 21  1  0  0  0  0
 12 14  1  0  0  0  0
 12 33  1  0  0  0  0
 12 34  1  0  0  0  0
 13 17  1  0  0  0  0
 13 35  1  0  0  0  0
 13 36  1  0  0  0  0
 14 37  1  0  0  0  0
 14 38  1  0  0  0  0
 15 20  1  0  0  0  0
 15 22  1  6  0  0  0
 15 23  1  0  0  0  0
 16 19  1  0  0  0  0
 16 39  1  0  0  0  0
 16 40  1  0  0  0  0
 18 41  1  0  0  0  0
 18 42  1  0  0  0  0
 18 43  1  0  0  0  0
 19 20  1  0  0  0  0
 19 44  1  0  0  0  0
 19 45  1  0  0  0  0
 20 24  2  0  0  0  0
 21 25  1  0  0  0  0
 22 46  1  0  0  0  0
 22 47  1  0  0  0  0
 22 48  1  0  0  0  0
 23 26  2  0  0  0  0
 23 49  1  0  0  0  0
 24 27  1  0  0  0  0
 24 51  1  0  0  0  0
 25 52  1  0  0  0  0
 25 53  1  0  0  0  0
 26 27  1  0  0  0  0
 26 54  1  0  0  0  0
 28 29  1  0  0  0  0
 29 55  1  0  0  0  0
 29 56  1  0  0  0  0
 29 57  1  0  0  0  0
M  END
