DB14186
 OpenBabel07062211533D

 20 20  0  0  0  0  0  0  0  0999 V2000
   -4.0048   -0.7290   -0.5426 O   0  0  0  0  0  0  0  0  0  0  0  0
    0.5635    0.2846   -0.0292 C   0  0  0  0  0  0  0  0  0  0  0  0
   -0.8546    0.6078   -0.0388 C   0  0  0  0  0  0  0  0  0  0  0  0
    0.9751   -1.0482   -0.0296 C   0  0  0  0  0  0  0  0  0  0  0  0
    1.5121    1.3074   -0.0193 C   0  0  0  0  0  0  0  0  0  0  0  0
    2.3349   -1.3584   -0.0202 C   0  0  0  0  0  0  0  0  0  0  0  0
    2.8720    0.9972   -0.0099 C   0  0  0  0  0  0  0  0  0  0  0  0
   -1.8588   -0.2215    0.3265 C   0  0  0  0  0  0  0  0  0  0  0  0
    3.2834   -0.3358   -0.0103 C   0  0  0  0  0  0  0  0  0  0  0  0
   -3.3038    0.1616    0.3142 C   0  0  0  0  0  0  0  0  0  0  0  0
   -1.1092    1.6156   -0.3608 H   0  0  0  0  0  0  0  0  0  0  0  0
    0.2737   -1.8769   -0.0577 H   0  0  0  0  0  0  0  0  0  0  0  0
    1.2106    2.3521   -0.0175 H   0  0  0  0  0  0  0  0  0  0  0  0
    2.6560   -2.3960   -0.0252 H   0  0  0  0  0  0  0  0  0  0  0  0
    3.6108    1.7931   -0.0022 H   0  0  0  0  0  0  0  0  0  0  0  0
   -1.6536   -1.2264    0.6840 H   0  0  0  0  0  0  0  0  0  0  0  0
    4.3423   -0.5772   -0.0041 H   0  0  0  0  0  0  0  0  0  0  0  0
   -3.7228    0.0703    1.3206 H   0  0  0  0  0  0  0  0  0  0  0  0
   -3.4682    1.1860   -0.0346 H   0  0  0  0  0  0  0  0  0  0  0  0
   -3.6585   -0.6062   -1.4432 H   0  0  0  0  0  0  0  0  0  0  0  0
  1 10  1  0  0  0  0
  1 20  1  0  0  0  0
  2  3  1  0  0  0  0
  2  4  2  0  0  0  0
  2  5  1  0  0  0  0
  3  8  2  0  0  0  0
  3 11  1  0  0  0  0
  4  6  1  0  0  0  0
  4 12  1  0  0  0  0
  5  7  2  0  0  0  0
  5 13  1  0  0  0  0
  6  9  2  0  0  0  0
  6 14  1  0  0  0  0
  7  9  1  0  0  0  0
  7 15  1  0  0  0  0
  8 10  1  0  0  0  0
  8 16  1  0  0  0  0
  9 17  1  0  0  0  0
 10 18  1  0  0  0  0
 10 19  1  0  0  0  0
M  END
