DB14512
 OpenBabel07062211533D

 65 69  0  0  1  0  0  0  0  0999 V2000
   -1.5074   -1.6737   -1.1701 Cl  0  0  0  0  0  0  0  0  0  0  0  0
    4.5599    3.2701   -2.2147 Cl  0  0  0  0  0  0  0  0  0  0  0  0
    2.7088   -0.0046   -0.6391 O   0  0  0  0  0  0  0  0  0  0  0  0
   -1.9482    2.3239   -1.2271 O   0  0  0  0  0  0  0  0  0  0  0  0
    3.8125    2.7608    0.6079 O   0  0  0  0  0  0  0  0  0  0  0  0
    4.9037    0.4623   -0.1659 O   0  0  0  0  0  0  0  0  0  0  0  0
   -6.2100   -3.2001   -1.2657 O   0  0  0  0  0  0  0  0  0  0  0  0
    5.5251   -2.1825   -0.7036 O   0  0  0  0  0  0  0  0  0  0  0  0
    0.7027    1.2970    0.0223 C   0  0  1  0  0  0  0  0  0  0  0  0
    0.1580    0.1376    0.8885 C   0  0  2  0  0  0  0  0  0  0  0  0
   -1.3780    0.1121    0.9722 C   0  0  1  0  0  0  0  0  0  0  0  0
   -2.0172   -0.0275   -0.4670 C   0  0  1  0  0  0  0  0  0  0  0  0
    2.2290    1.0403    0.1984 C   0  0  1  0  0  0  0  0  0  0  0  0
    0.9680    0.2430    2.1806 C   0  0  0  0  0  0  0  0  0  0  0  0
    0.1427    1.1242   -1.4071 C   0  0  0  0  0  0  0  0  0  0  0  0
    2.3733    0.7153    1.7177 C   0  0  1  0  0  0  0  0  0  0  0  0
   -1.4048    1.0290   -1.4534 C   0  0  2  0  0  0  0  0  0  0  0  0
   -3.6116   -0.0399   -0.3669 C   0  0  1  0  0  0  0  0  0  0  0  0
   -1.8775   -0.9748    1.9438 C   0  0  0  0  0  0  0  0  0  0  0  0
    0.3399    2.7046    0.5770 C   0  0  0  0  0  0  0  0  0  0  0  0
   -3.4019   -1.0290    2.0135 C   0  0  0  0  0  0  0  0  0  0  0  0
   -4.0196   -1.1270    0.6401 C   0  0  0  0  0  0  0  0  0  0  0  0
    3.0976    2.1895   -0.2139 C   0  0  0  0  0  0  0  0  0  0  0  0
    3.4584   -0.3030    2.0555 C   0  0  0  0  0  0  0  0  0  0  0  0
   -4.2305    1.2899    0.1355 C   0  0  0  0  0  0  0  0  0  0  0  0
   -4.2474   -0.2768   -1.7317 C   0  0  0  0  0  0  0  0  0  0  0  0
   -4.8516   -2.1377    0.3418 C   0  0  0  0  0  0  0  0  0  0  0  0
    3.0240    2.5774   -1.6730 C   0  0  0  0  0  0  0  0  0  0  0  0
   -5.0770   -1.2820   -2.0289 C   0  0  0  0  0  0  0  0  0  0  0  0
    4.0337   -0.3347   -0.5011 C   0  0  0  0  0  0  0  0  0  0  0  0
   -5.4429   -2.2792   -1.0054 C   0  0  0  0  0  0  0  0  0  0  0  0
    4.2614   -1.7481   -0.8057 C   0  0  0  0  0  0  0  0  0  0  0  0
    3.3932   -2.7100   -1.1805 C   0  0  0  0  0  0  0  0  0  0  0  0
    4.1845   -3.8735   -1.3322 C   0  0  0  0  0  0  0  0  0  0  0  0
    5.4736   -3.5005   -1.0306 C   0  0  0  0  0  0  0  0  0  0  0  0
    0.4742   -0.8140    0.4365 H   0  0  0  0  0  0  0  0  0  0  0  0
   -1.7019    1.0655    1.4017 H   0  0  0  0  0  0  0  0  0  0  0  0
    0.5264    0.9797    2.8620 H   0  0  0  0  0  0  0  0  0  0  0  0
    1.0007   -0.7148    2.7107 H   0  0  0  0  0  0  0  0  0  0  0  0
    0.5594    0.2213   -1.8680 H   0  0  0  0  0  0  0  0  0  0  0  0
    0.4515    1.9644   -2.0366 H   0  0  0  0  0  0  0  0  0  0  0  0
    2.5921    1.6202    2.2995 H   0  0  0  0  0  0  0  0  0  0  0  0
   -1.6853    0.7679   -2.4813 H   0  0  0  0  0  0  0  0  0  0  0  0
   -1.4958   -0.7758    2.9525 H   0  0  0  0  0  0  0  0  0  0  0  0
   -1.4851   -1.9585    1.6588 H   0  0  0  0  0  0  0  0  0  0  0  0
    0.8520    2.9351    1.5163 H   0  0  0  0  0  0  0  0  0  0  0  0
    0.6163    3.4899   -0.1343 H   0  0  0  0  0  0  0  0  0  0  0  0
   -0.7257    2.8247    0.7803 H   0  0  0  0  0  0  0  0  0  0  0  0
   -3.7808   -0.1330    2.5191 H   0  0  0  0  0  0  0  0  0  0  0  0
   -3.6945   -1.8779    2.6438 H   0  0  0  0  0  0  0  0  0  0  0  0
    3.2970   -1.2859    1.6103 H   0  0  0  0  0  0  0  0  0  0  0  0
    4.4759    0.0721    1.9482 H   0  0  0  0  0  0  0  0  0  0  0  0
    3.3889   -0.5008    3.1358 H   0  0  0  0  0  0  0  0  0  0  0  0
   -3.7154    1.6974    1.0097 H   0  0  0  0  0  0  0  0  0  0  0  0
   -4.2361    2.0685   -0.6346 H   0  0  0  0  0  0  0  0  0  0  0  0
   -5.2813    1.1512    0.4245 H   0  0  0  0  0  0  0  0  0  0  0  0
   -4.0233    0.4378   -2.5207 H   0  0  0  0  0  0  0  0  0  0  0  0
   -1.5910    2.9203   -1.9068 H   0  0  0  0  0  0  0  0  0  0  0  0
   -5.1155   -2.8946    1.0729 H   0  0  0  0  0  0  0  0  0  0  0  0
    2.2525    3.3372   -1.8101 H   0  0  0  0  0  0  0  0  0  0  0  0
    2.8230    1.7243   -2.3218 H   0  0  0  0  0  0  0  0  0  0  0  0
   -5.5027   -1.3873   -3.0200 H   0  0  0  0  0  0  0  0  0  0  0  0
    2.3269   -2.6209   -1.3326 H   0  0  0  0  0  0  0  0  0  0  0  0
    3.8563   -4.8605   -1.6244 H   0  0  0  0  0  0  0  0  0  0  0  0
    6.4170   -4.0262   -1.0028 H   0  0  0  0  0  0  0  0  0  0  0  0
  1 12  1  0  0  0  0
  2 28  1  0  0  0  0
  3 13  1  0  0  0  0
  3 30  1  0  0  0  0
  4 17  1  0  0  0  0
  4 58  1  0  0  0  0
  5 23  2  0  0  0  0
  6 30  2  0  0  0  0
  7 31  2  0  0  0  0
  8 32  1  0  0  0  0
  8 35  1  0  0  0  0
  9 10  1  1  0  0  0
  9 15  1  0  0  0  0
  9 20  1  0  0  0  0
 10 11  1  1  0  0  0
 10 14  1  0  0  0  0
 10 36  1  0  0  0  0
 11 12  1  6  0  0  0
 11 19  1  0  0  0  0
 11 37  1  0  0  0  0
 12 17  1  6  0  0  0
 13  9  1  6  0  0  0
 13 23  1  0  0  0  0
 14 16  1  0  0  0  0
 14 38  1  0  0  0  0
 14 39  1  0  0  0  0
 15 17  1  0  0  0  0
 15 40  1  0  0  0  0
 15 41  1  0  0  0  0
 16 13  1  6  0  0  0
 16 24  1  0  0  0  0
 16 42  1  0  0  0  0
 17 43  1  6  0  0  0
 18 12  1  6  0  0  0
 18 22  1  0  0  0  0
 18 25  1  0  0  0  0
 18 26  1  0  0  0  0
 19 21  1  0  0  0  0
 19 44  1  0  0  0  0
 19 45  1  0  0  0  0
 20 46  1  0  0  0  0
 20 47  1  0  0  0  0
 20 48  1  0  0  0  0
 21 22  1  0  0  0  0
 21 49  1  0  0  0  0
 21 50  1  0  0  0  0
 22 27  2  0  0  0  0
 23 28  1  0  0  0  0
 24 51  1  0  0  0  0
 24 52  1  0  0  0  0
 24 53  1  0  0  0  0
 25 54  1  0  0  0  0
 25 55  1  0  0  0  0
 25 56  1  0  0  0  0
 26 29  2  0  0  0  0
 26 57  1  0  0  0  0
 27 31  1  0  0  0  0
 27 59  1  0  0  0  0
 28 60  1  0  0  0  0
 28 61  1  0  0  0  0
 29 31  1  0  0  0  0
 29 62  1  0  0  0  0
 30 32  1  0  0  0  0
 32 33  2  0  0  0  0
 33 34  1  0  0  0  0
 33 63  1  0  0  0  0
 34 35  2  0  0  0  0
 34 64  1  0  0  0  0
 35 65  1  0  0  0  0
M  END
