DB14726
 OpenBabel07062211533D

 60 63  0  0  0  0  0  0  0  0999 V2000
    4.5781    0.7282   -2.5120 O   0  0  0  0  0  0  0  0  0  0  0  0
    6.1103   -3.7951    1.7595 O   0  0  0  0  0  0  0  0  0  0  0  0
    4.5569   -2.5475    2.8485 O   0  0  0  0  0  0  0  0  0  0  0  0
   -1.1015   -1.4898   -1.0728 N   0  0  0  0  0  0  0  0  0  0  0  0
   -0.5878    0.3378    0.0831 N   0  0  0  0  0  0  0  0  0  0  0  0
    4.9121    0.4908   -0.1857 N   0  0  0  0  0  0  0  0  0  0  0  0
   -3.8728    0.2416   -0.6181 N   0  0  0  0  0  0  0  0  0  0  0  0
    6.1009    2.3933   -1.0645 N   0  0  0  0  0  0  0  0  0  0  0  0
   -9.8100    0.5949    1.8974 N   0  0  0  0  0  0  0  0  0  0  0  0
  -10.0380    1.8095   -0.0860 N   0  0  0  0  0  0  0  0  0  0  0  0
    0.2235   -1.1742   -1.2672 C   0  0  0  0  0  0  0  0  0  0  0  0
   -1.5569   -0.5635   -0.2594 C   0  0  0  0  0  0  0  0  0  0  0  0
    0.5702   -0.0311   -0.5521 C   0  0  0  0  0  0  0  0  0  0  0  0
   -2.9549   -0.5237    0.2165 C   0  0  0  0  0  0  0  0  0  0  0  0
    2.8124   -0.1345   -1.3406 C   0  0  0  0  0  0  0  0  0  0  0  0
    1.8521    0.5199   -0.5621 C   0  0  0  0  0  0  0  0  0  0  0  0
    1.2009   -1.8186   -2.0443 C   0  0  0  0  0  0  0  0  0  0  0  0
    2.4949   -1.2830   -2.0694 C   0  0  0  0  0  0  0  0  0  0  0  0
   -1.8116   -2.6056   -1.6502 C   0  0  0  0  0  0  0  0  0  0  0  0
    4.1678    0.3930   -1.3919 C   0  0  0  0  0  0  0  0  0  0  0  0
    4.6812   -0.4586    0.9148 C   0  0  0  0  0  0  0  0  0  0  0  0
   -5.1938    0.4551   -0.2887 C   0  0  0  0  0  0  0  0  0  0  0  0
    5.5733   -1.6883    0.8066 C   0  0  0  0  0  0  0  0  0  0  0  0
    5.9083    1.5353   -0.0378 C   0  0  0  0  0  0  0  0  0  0  0  0
   -5.7118   -0.0725    0.8942 C   0  0  0  0  0  0  0  0  0  0  0  0
   -6.0133    1.1977   -1.1388 C   0  0  0  0  0  0  0  0  0  0  0  0
    6.6066    1.5872    1.1580 C   0  0  0  0  0  0  0  0  0  0  0  0
   -7.0491    0.1426    1.2268 C   0  0  0  0  0  0  0  0  0  0  0  0
   -7.3507    1.4127   -0.8063 C   0  0  0  0  0  0  0  0  0  0  0  0
   -7.8686    0.8852    0.3767 C   0  0  0  0  0  0  0  0  0  0  0  0
    5.3385   -2.6878    1.9184 C   0  0  0  0  0  0  0  0  0  0  0  0
    7.5640    2.5840    1.3095 C   0  0  0  0  0  0  0  0  0  0  0  0
    7.0396    3.3486   -0.8807 C   0  0  0  0  0  0  0  0  0  0  0  0
    7.7907    3.4855    0.2756 C   0  0  0  0  0  0  0  0  0  0  0  0
   -9.2631    1.1093    0.7231 C   0  0  0  0  0  0  0  0  0  0  0  0
   -2.9285   -0.0724    1.2176 H   0  0  0  0  0  0  0  0  0  0  0  0
   -3.3336   -1.5452    0.3471 H   0  0  0  0  0  0  0  0  0  0  0  0
    2.0844    1.4147    0.0052 H   0  0  0  0  0  0  0  0  0  0  0  0
    0.9754   -2.7146   -2.6136 H   0  0  0  0  0  0  0  0  0  0  0  0
    3.2549   -1.7823   -2.6667 H   0  0  0  0  0  0  0  0  0  0  0  0
   -1.3199   -2.9262   -2.5708 H   0  0  0  0  0  0  0  0  0  0  0  0
   -2.8326   -2.3008   -1.8933 H   0  0  0  0  0  0  0  0  0  0  0  0
   -1.8181   -3.4197   -0.9211 H   0  0  0  0  0  0  0  0  0  0  0  0
    4.7270    0.0295    1.8929 H   0  0  0  0  0  0  0  0  0  0  0  0
    3.6501   -0.8226    0.8745 H   0  0  0  0  0  0  0  0  0  0  0  0
   -3.5268    0.6247   -1.4911 H   0  0  0  0  0  0  0  0  0  0  0  0
    5.3876   -2.1948   -0.1478 H   0  0  0  0  0  0  0  0  0  0  0  0
    6.6284   -1.3954    0.8380 H   0  0  0  0  0  0  0  0  0  0  0  0
   -5.1137   -0.6583    1.5856 H   0  0  0  0  0  0  0  0  0  0  0  0
   -5.6224    1.6143   -2.0638 H   0  0  0  0  0  0  0  0  0  0  0  0
    6.4923    0.8992    1.9842 H   0  0  0  0  0  0  0  0  0  0  0  0
   -7.4012   -0.2899    2.1568 H   0  0  0  0  0  0  0  0  0  0  0  0
   -7.9611    1.9954   -1.4907 H   0  0  0  0  0  0  0  0  0  0  0  0
    8.1375    2.6553    2.2290 H   0  0  0  0  0  0  0  0  0  0  0  0
    7.1786    4.0261   -1.7169 H   0  0  0  0  0  0  0  0  0  0  0  0
    8.5330    4.2697    0.3711 H   0  0  0  0  0  0  0  0  0  0  0  0
    5.9614   -4.4497    2.4748 H   0  0  0  0  0  0  0  0  0  0  0  0
  -10.7859    0.7608    2.1211 H   0  0  0  0  0  0  0  0  0  0  0  0
   -9.2884    0.0488    2.5715 H   0  0  0  0  0  0  0  0  0  0  0  0
  -10.9765    1.8552    0.3263 H   0  0  0  0  0  0  0  0  0  0  0  0
  1 20  2  0  0  0  0
  2 31  1  0  0  0  0
  2 57  1  0  0  0  0
  3 31  2  0  0  0  0
  4 11  1  0  0  0  0
  4 12  2  0  0  0  0
  4 19  1  0  0  0  0
  5 12  1  0  0  0  0
  5 13  2  0  0  0  0
  6 20  1  0  0  0  0
  6 21  1  0  0  0  0
  6 24  1  0  0  0  0
  7 14  1  0  0  0  0
  7 22  1  0  0  0  0
  7 46  1  0  0  0  0
  8 24  2  0  0  0  0
  8 33  1  0  0  0  0
  9 35  1  0  0  0  0
  9 58  1  0  0  0  0
  9 59  1  0  0  0  0
 10 35  2  0  0  0  0
 10 60  1  0  0  0  0
 11 13  1  0  0  0  0
 11 17  2  0  0  0  0
 12 14  1  0  0  0  0
 13 16  2  0  0  0  0
 14 36  1  0  0  0  0
 14 37  1  0  0  0  0
 15 16  1  0  0  0  0
 15 18  2  0  0  0  0
 15 20  1  0  0  0  0
 16 38  1  0  0  0  0
 17 18  1  0  0  0  0
 17 39  1  0  0  0  0
 18 40  1  0  0  0  0
 19 41  1  0  0  0  0
 19 42  1  0  0  0  0
 19 43  1  0  0  0  0
 21 23  1  0  0  0  0
 21 44  1  0  0  0  0
 21 45  1  0  0  0  0
 22 25  2  0  0  0  0
 22 26  1  0  0  0  0
 23 31  1  0  0  0  0
 23 47  1  0  0  0  0
 23 48  1  0  0  0  0
 24 27  1  0  0  0  0
 25 28  1  0  0  0  0
 25 49  1  0  0  0  0
 26 29  2  0  0  0  0
 26 50  1  0  0  0  0
 27 32  2  0  0  0  0
 27 51  1  0  0  0  0
 28 30  2  0  0  0  0
 28 52  1  0  0  0  0
 29 30  1  0  0  0  0
 29 53  1  0  0  0  0
 30 35  1  0  0  0  0
 32 34  1  0  0  0  0
 32 54  1  0  0  0  0
 33 34  2  0  0  0  0
 33 55  1  0  0  0  0
 34 56  1  0  0  0  0
M  END
