DB14199
 OpenBabel07062211533D

 16 15  0  0  1  0  0  0  0  0999 V2000
   -0.8460   -0.8635    2.1684 Br  0  0  0  0  0  0  0  0  0  0  0  0
   -2.4229    1.2589   -1.6781 Br  0  0  0  0  0  0  0  0  0  0  0  0
   -1.1822   -2.4799   -1.1962 N   0  0  0  0  0  0  0  0  0  0  0  0
    3.8584    1.0273   -0.4964 N   0  0  0  0  0  0  0  0  0  0  0  0
   -0.8758   -0.3001    0.2517 C   0  0  2  0  0  0  0  0  0  0  0  0
    0.4517    0.4338   -0.0489 C   0  0  0  0  0  0  0  0  0  0  0  0
    1.7379   -0.3802    0.1734 C   0  0  0  0  0  0  0  0  0  0  0  0
   -2.0976    0.6244    0.1407 C   0  0  0  0  0  0  0  0  0  0  0  0
   -1.0477   -1.5187   -0.5597 C   0  0  0  0  0  0  0  0  0  0  0  0
    2.9230    0.4075   -0.2011 C   0  0  0  0  0  0  0  0  0  0  0  0
    0.5082    1.3462    0.5621 H   0  0  0  0  0  0  0  0  0  0  0  0
    0.4504    0.7736   -1.0936 H   0  0  0  0  0  0  0  0  0  0  0  0
    1.7167   -1.2965   -0.4265 H   0  0  0  0  0  0  0  0  0  0  0  0
    1.8426   -0.6795    1.2204 H   0  0  0  0  0  0  0  0  0  0  0  0
   -1.9900    1.5261    0.7530 H   0  0  0  0  0  0  0  0  0  0  0  0
   -3.0267    0.1204    0.4307 H   0  0  0  0  0  0  0  0  0  0  0  0
  2  8  1  0  0  0  0
  3  9  3  0  0  0  0
  4 10  3  0  0  0  0
  5  1  1  1  0  0  0
  5  6  1  0  0  0  0
  5  8  1  0  0  0  0
  5  9  1  0  0  0  0
  6  7  1  0  0  0  0
  6 11  1  0  0  0  0
  6 12  1  0  0  0  0
  7 10  1  0  0  0  0
  7 13  1  0  0  0  0
  7 14  1  0  0  0  0
  8 15  1  0  0  0  0
  8 16  1  0  0  0  0
M  END
