DB14674
 OpenBabel07062211533D

 65 68  0  0  1  0  0  0  0  0999 V2000
   -8.5653   -2.4192   -1.9067 Cl  0  0  0  0  0  0  0  0  0  0  0  0
   -8.6295    3.1213    2.4349 Cl  0  0  0  0  0  0  0  0  0  0  0  0
    7.8067    0.9938    0.0065 P   0  0  0  0  0  0  0  0  0  0  0  0
    6.2655    1.0446    0.5041 O   0  0  0  0  0  0  0  0  0  0  0  0
    7.6841    1.2598   -1.5839 O   0  0  0  0  0  0  0  0  0  0  0  0
    8.4359    2.3741    0.5671 O   0  0  0  0  0  0  0  0  0  0  0  0
    8.5531   -0.2520    0.3850 O   0  0  0  0  0  0  0  0  0  0  0  0
   -4.5667   -0.1702   -0.8474 O   0  0  0  0  0  0  0  0  0  0  0  0
   -4.5213    0.9598    1.1714 O   0  0  0  0  0  0  0  0  0  0  0  0
   -6.5783    0.3894    0.2479 N   0  0  0  0  0  0  0  0  0  0  0  0
    3.8862    0.4019    0.2051 C   0  0  1  0  0  0  0  0  0  0  0  0
    3.2706   -0.9996    0.0209 C   0  0  2  0  0  0  0  0  0  0  0  0
    1.7506   -0.9876    0.1805 C   0  0  1  0  0  0  0  0  0  0  0  0
    1.1411   -0.0642   -0.9179 C   0  0  2  0  0  0  0  0  0  0  0  0
    5.3764    0.0404    0.0550 C   0  0  2  0  0  0  0  0  0  0  0  0
    3.3304    1.3156   -0.8940 C   0  0  0  0  0  0  0  0  0  0  0  0
    4.1121   -1.8811    0.9395 C   0  0  0  0  0  0  0  0  0  0  0  0
    1.7899    1.3460   -0.8893 C   0  0  0  0  0  0  0  0  0  0  0  0
    5.5234   -1.2717    0.8501 C   0  0  0  0  0  0  0  0  0  0  0  0
    1.1355   -2.3826    0.0547 C   0  0  0  0  0  0  0  0  0  0  0  0
    3.6178    1.0492    1.5880 C   0  0  0  0  0  0  0  0  0  0  0  0
   -0.3844   -0.0757   -0.8664 C   0  0  0  0  0  0  0  0  0  0  0  0
   -0.3573   -2.3201    0.3647 C   0  0  0  0  0  0  0  0  0  0  0  0
   -1.0743   -1.1676   -0.2951 C   0  0  0  0  0  0  0  0  0  0  0  0
   -1.1403    0.9499   -1.4615 C   0  0  0  0  0  0  0  0  0  0  0  0
   -2.4802   -1.1800   -0.2851 C   0  0  0  0  0  0  0  0  0  0  0  0
   -2.5365    0.9204   -1.4528 C   0  0  0  0  0  0  0  0  0  0  0  0
   -3.2069   -0.1417   -0.8603 C   0  0  0  0  0  0  0  0  0  0  0  0
   -5.1801    0.4395    0.2717 C   0  0  0  0  0  0  0  0  0  0  0  0
   -7.3504   -0.2270   -0.8260 C   0  0  0  0  0  0  0  0  0  0  0  0
   -7.3501    0.9765    1.3340 C   0  0  0  0  0  0  0  0  0  0  0  0
   -7.6271   -1.6997   -0.5748 C   0  0  0  0  0  0  0  0  0  0  0  0
   -7.6915    2.4359    1.0849 C   0  0  0  0  0  0  0  0  0  0  0  0
    3.4803   -1.3438   -1.0059 H   0  0  0  0  0  0  0  0  0  0  0  0
    1.4888   -0.6010    1.1738 H   0  0  0  0  0  0  0  0  0  0  0  0
    1.3949   -0.5002   -1.8966 H   0  0  0  0  0  0  0  0  0  0  0  0
    5.5902   -0.1683   -1.0017 H   0  0  0  0  0  0  0  0  0  0  0  0
    3.6655    0.9630   -1.8783 H   0  0  0  0  0  0  0  0  0  0  0  0
    3.7198    2.3348   -0.7845 H   0  0  0  0  0  0  0  0  0  0  0  0
    3.7470   -1.8506    1.9721 H   0  0  0  0  0  0  0  0  0  0  0  0
    4.1105   -2.9275    0.6181 H   0  0  0  0  0  0  0  0  0  0  0  0
    1.4282    1.9035   -0.0170 H   0  0  0  0  0  0  0  0  0  0  0  0
    1.4795    1.9229   -1.7683 H   0  0  0  0  0  0  0  0  0  0  0  0
    5.9377   -1.1013    1.8502 H   0  0  0  0  0  0  0  0  0  0  0  0
    6.2079   -1.9528    0.3325 H   0  0  0  0  0  0  0  0  0  0  0  0
    1.2905   -2.7722   -0.9597 H   0  0  0  0  0  0  0  0  0  0  0  0
    1.6099   -3.0900    0.7439 H   0  0  0  0  0  0  0  0  0  0  0  0
    4.0159    0.4505    2.4132 H   0  0  0  0  0  0  0  0  0  0  0  0
    4.0949    2.0344    1.6486 H   0  0  0  0  0  0  0  0  0  0  0  0
    2.5539    1.2003    1.7883 H   0  0  0  0  0  0  0  0  0  0  0  0
   -0.8178   -3.2677    0.0599 H   0  0  0  0  0  0  0  0  0  0  0  0
   -0.4926   -2.2227    1.4497 H   0  0  0  0  0  0  0  0  0  0  0  0
   -0.6593    1.7908   -1.9518 H   0  0  0  0  0  0  0  0  0  0  0  0
   -3.0101   -2.0119    0.1749 H   0  0  0  0  0  0  0  0  0  0  0  0
   -3.0920    1.7315   -1.9159 H   0  0  0  0  0  0  0  0  0  0  0  0
    8.4880    1.1848   -2.1408 H   0  0  0  0  0  0  0  0  0  0  0  0
    9.3957    2.5396    0.4506 H   0  0  0  0  0  0  0  0  0  0  0  0
   -6.7939   -0.1159   -1.7637 H   0  0  0  0  0  0  0  0  0  0  0  0
   -8.2865    0.3303   -0.9509 H   0  0  0  0  0  0  0  0  0  0  0  0
   -6.7624    0.8972    2.2569 H   0  0  0  0  0  0  0  0  0  0  0  0
   -8.2578    0.3807    1.4862 H   0  0  0  0  0  0  0  0  0  0  0  0
   -6.6944   -2.2651   -0.4824 H   0  0  0  0  0  0  0  0  0  0  0  0
   -8.1985   -1.8437    0.3473 H   0  0  0  0  0  0  0  0  0  0  0  0
   -6.7849    3.0388    0.9711 H   0  0  0  0  0  0  0  0  0  0  0  0
   -8.2882    2.5534    0.1752 H   0  0  0  0  0  0  0  0  0  0  0  0
  1 32  1  0  0  0  0
  2 33  1  0  0  0  0
  3  4  1  0  0  0  0
  3  5  1  0  0  0  0
  3  6  1  0  0  0  0
  3  7  2  0  0  0  0
  4 15  1  0  0  0  0
  5 56  1  0  0  0  0
  6 57  1  0  0  0  0
  8 28  1  0  0  0  0
  8 29  1  0  0  0  0
  9 29  2  0  0  0  0
 10 29  1  0  0  0  0
 10 30  1  0  0  0  0
 10 31  1  0  0  0  0
 11 12  1  6  0  0  0
 11 16  1  0  0  0  0
 11 21  1  0  0  0  0
 12 13  1  1  0  0  0
 12 17  1  0  0  0  0
 12 34  1  0  0  0  0
 13 14  1  6  0  0  0
 13 20  1  0  0  0  0
 13 35  1  0  0  0  0
 14 18  1  0  0  0  0
 14 22  1  0  0  0  0
 14 36  1  6  0  0  0
 15 11  1  1  0  0  0
 15 19  1  0  0  0  0
 15 37  1  0  0  0  0
 16 18  1  0  0  0  0
 16 38  1  0  0  0  0
 16 39  1  0  0  0  0
 17 19  1  0  0  0  0
 17 40  1  0  0  0  0
 17 41  1  0  0  0  0
 18 42  1  0  0  0  0
 18 43  1  0  0  0  0
 19 44  1  0  0  0  0
 19 45  1  0  0  0  0
 20 23  1  0  0  0  0
 20 46  1  0  0  0  0
 20 47  1  0  0  0  0
 21 48  1  0  0  0  0
 21 49  1  0  0  0  0
 21 50  1  0  0  0  0
 22 24  2  0  0  0  0
 22 25  1  0  0  0  0
 23 24  1  0  0  0  0
 23 51  1  0  0  0  0
 23 52  1  0  0  0  0
 24 26  1  0  0  0  0
 25 27  2  0  0  0  0
 25 53  1  0  0  0  0
 26 28  2  0  0  0  0
 26 54  1  0  0  0  0
 27 28  1  0  0  0  0
 27 55  1  0  0  0  0
 30 32  1  0  0  0  0
 30 58  1  0  0  0  0
 30 59  1  0  0  0  0
 31 33  1  0  0  0  0
 31 60  1  0  0  0  0
 31 61  1  0  0  0  0
 32 62  1  0  0  0  0
 32 63  1  0  0  0  0
 33 64  1  0  0  0  0
 33 65  1  0  0  0  0
M  END
