DB15477
 OpenBabel07062211533D

 52 55  0  0  1  0  0  0  0  0999 V2000
   -1.4073    1.0288    0.8175 O   0  0  0  0  0  0  0  0  0  0  0  0
    1.7221    1.5866   -1.0292 O   0  0  0  0  0  0  0  0  0  0  0  0
   -0.2906    2.4919   -2.8598 O   0  0  0  0  0  0  0  0  0  0  0  0
   -2.5464    3.6551   -1.4887 O   0  0  0  0  0  0  0  0  0  0  0  0
   -3.6837    1.7472    2.1643 O   0  0  0  0  0  0  0  0  0  0  0  0
    2.7528   -2.1309   -1.6933 O   0  0  0  0  0  0  0  0  0  0  0  0
    0.8958   -3.9102   -1.9473 O   0  0  0  0  0  0  0  0  0  0  0  0
    5.0270   -1.2449   -0.8420 O   0  0  0  0  0  0  0  0  0  0  0  0
   -4.1053   -2.6119   -0.2472 O   0  0  0  0  0  0  0  0  0  0  0  0
    0.0049    1.1610    0.6357 C   0  0  1  0  0  0  0  0  0  0  0  0
    0.6537   -0.0871    1.2256 C   0  0  1  0  0  0  0  0  0  0  0  0
    0.3305    1.3357   -0.8516 C   0  0  1  0  0  0  0  0  0  0  0  0
   -0.4442    2.5155   -1.4392 C   0  0  2  0  0  0  0  0  0  0  0  0
   -1.9318    2.4314   -1.0943 C   0  0  1  0  0  0  0  0  0  0  0  0
   -2.1276    2.1938    0.4067 C   0  0  1  0  0  0  0  0  0  0  0  0
    0.0802   -1.3258    0.5679 C   0  0  0  0  0  0  0  0  0  0  0  0
    2.1618    0.0182    1.1239 C   0  0  0  0  0  0  0  0  0  0  0  0
    0.8016   -2.0543   -0.3859 C   0  0  0  0  0  0  0  0  0  0  0  0
   -3.5924    1.9686    0.7685 C   0  0  0  0  0  0  0  0  0  0  0  0
    2.8883   -0.7072    0.1715 C   0  0  0  0  0  0  0  0  0  0  0  0
    2.1926   -1.6715   -0.7064 C   0  0  0  0  0  0  0  0  0  0  0  0
   -1.2238   -1.7414    0.8845 C   0  0  0  0  0  0  0  0  0  0  0  0
    2.8571    0.8937    1.9744 C   0  0  0  0  0  0  0  0  0  0  0  0
    0.2291   -3.1630   -1.0220 C   0  0  0  0  0  0  0  0  0  0  0  0
    4.2756   -0.5509    0.0592 C   0  0  0  0  0  0  0  0  0  0  0  0
   -1.7931   -2.8499    0.2567 C   0  0  0  0  0  0  0  0  0  0  0  0
   -1.0683   -3.5570   -0.6987 C   0  0  0  0  0  0  0  0  0  0  0  0
    4.2401    1.0458    1.8680 C   0  0  0  0  0  0  0  0  0  0  0  0
    4.9476    0.3267    0.9086 C   0  0  0  0  0  0  0  0  0  0  0  0
   -3.1794   -3.2738    0.6061 C   0  0  0  0  0  0  0  0  0  0  0  0
    0.3495    2.0416    1.1959 H   0  0  0  0  0  0  0  0  0  0  0  0
    0.4015   -0.1642    2.2934 H   0  0  0  0  0  0  0  0  0  0  0  0
    0.0721    0.4430   -1.4318 H   0  0  0  0  0  0  0  0  0  0  0  0
   -0.0262    3.4707   -1.0965 H   0  0  0  0  0  0  0  0  0  0  0  0
   -2.3978    1.6228   -1.6716 H   0  0  0  0  0  0  0  0  0  0  0  0
   -1.7639    3.0522    0.9874 H   0  0  0  0  0  0  0  0  0  0  0  0
   -3.9983    1.0859    0.2631 H   0  0  0  0  0  0  0  0  0  0  0  0
   -4.2084    2.8357    0.5140 H   0  0  0  0  0  0  0  0  0  0  0  0
   -1.7956   -1.2177    1.6473 H   0  0  0  0  0  0  0  0  0  0  0  0
    1.9131    1.5393   -1.9808 H   0  0  0  0  0  0  0  0  0  0  0  0
    2.3201    1.4702    2.7239 H   0  0  0  0  0  0  0  0  0  0  0  0
    0.6403    2.6866   -3.0593 H   0  0  0  0  0  0  0  0  0  0  0  0
   -2.3857    3.7688   -2.4410 H   0  0  0  0  0  0  0  0  0  0  0  0
   -1.5088   -4.4204   -1.1919 H   0  0  0  0  0  0  0  0  0  0  0  0
    4.7633    1.7281    2.5315 H   0  0  0  0  0  0  0  0  0  0  0  0
    6.0245    0.4576    0.8399 H   0  0  0  0  0  0  0  0  0  0  0  0
   -3.1299    0.9764    2.3764 H   0  0  0  0  0  0  0  0  0  0  0  0
   -3.3016   -4.3562    0.4888 H   0  0  0  0  0  0  0  0  0  0  0  0
   -3.4173   -3.0254    1.6464 H   0  0  0  0  0  0  0  0  0  0  0  0
    1.8147   -3.6125   -2.0284 H   0  0  0  0  0  0  0  0  0  0  0  0
    5.9615   -0.9919   -0.7508 H   0  0  0  0  0  0  0  0  0  0  0  0
   -4.9941   -2.9106    0.0105 H   0  0  0  0  0  0  0  0  0  0  0  0
  1 10  1  0  0  0  0
  1 15  1  0  0  0  0
  2 12  1  0  0  0  0
  2 40  1  0  0  0  0
  3 13  1  0  0  0  0
  3 42  1  0  0  0  0
  4 14  1  0  0  0  0
  4 43  1  0  0  0  0
  5 19  1  0  0  0  0
  5 47  1  0  0  0  0
  6 21  2  0  0  0  0
  7 24  1  0  0  0  0
  7 50  1  0  0  0  0
  8 25  1  0  0  0  0
  8 51  1  0  0  0  0
  9 30  1  0  0  0  0
  9 52  1  0  0  0  0
 10 11  1  0  0  0  0
 10 12  1  6  0  0  0
 10 31  1  0  0  0  0
 11 16  1  0  0  0  0
 11 17  1  0  0  0  0
 11 32  1  1  0  0  0
 12 13  1  6  0  0  0
 12 33  1  0  0  0  0
 13 14  1  1  0  0  0
 13 34  1  0  0  0  0
 14 15  1  1  0  0  0
 14 35  1  0  0  0  0
 15 19  1  0  0  0  0
 15 36  1  1  0  0  0
 16 18  2  0  0  0  0
 16 22  1  0  0  0  0
 17 20  2  0  0  0  0
 17 23  1  0  0  0  0
 18 21  1  0  0  0  0
 18 24  1  0  0  0  0
 19 37  1  0  0  0  0
 19 38  1  0  0  0  0
 20 21  1  0  0  0  0
 20 25  1  0  0  0  0
 22 26  2  0  0  0  0
 22 39  1  0  0  0  0
 23 28  2  0  0  0  0
 23 41  1  0  0  0  0
 24 27  2  0  0  0  0
 25 29  2  0  0  0  0
 26 27  1  0  0  0  0
 26 30  1  0  0  0  0
 27 44  1  0  0  0  0
 28 29  1  0  0  0  0
 28 45  1  0  0  0  0
 29 46  1  0  0  0  0
 30 48  1  0  0  0  0
 30 49  1  0  0  0  0
M  END
