DB15456
 OpenBabel07062211533D

 47 50  0  0  0  0  0  0  0  0999 V2000
   -1.4314   -5.3916   -0.7179 F   0  0  0  0  0  0  0  0  0  0  0  0
   -6.1695   -0.6370    0.1116 F   0  0  0  0  0  0  0  0  0  0  0  0
    6.8257    1.0561   -0.4356 O   0  0  0  0  0  0  0  0  0  0  0  0
    5.8395   -0.5255    0.8892 O   0  0  0  0  0  0  0  0  0  0  0  0
   -2.6592   -0.4654    1.0373 N   0  0  0  0  0  0  0  0  0  0  0  0
   -1.5230    0.2488    0.9425 N   0  0  0  0  0  0  0  0  0  0  0  0
   -3.4927   -2.6957    0.6114 N   0  0  0  0  0  0  0  0  0  0  0  0
    1.5437   -1.1755   -0.2860 N   0  0  0  0  0  0  0  0  0  0  0  0
    1.0326    1.0459    0.4959 N   0  0  0  0  0  0  0  0  0  0  0  0
    4.5805    0.8998   -0.4825 N   0  0  0  0  0  0  0  0  0  0  0  0
    3.7289   -1.7140   -1.0233 N   0  0  0  0  0  0  0  0  0  0  0  0
    2.7104    2.7167    0.5409 N   0  0  0  0  0  0  0  0  0  0  0  0
   -1.2067   -1.9033    0.2341 C   0  0  0  0  0  0  0  0  0  0  0  0
   -2.5282   -1.7593    0.6270 C   0  0  0  0  0  0  0  0  0  0  0  0
   -3.8566    0.1668    1.5391 C   0  0  0  0  0  0  0  0  0  0  0  0
   -0.6427   -0.6308    0.4532 C   0  0  0  0  0  0  0  0  0  0  0  0
   -4.5422    1.0424    0.5199 C   0  0  0  0  0  0  0  0  0  0  0  0
    0.7194   -0.2315    0.2069 C   0  0  0  0  0  0  0  0  0  0  0  0
   -0.7956   -3.1558   -0.2385 C   0  0  0  0  0  0  0  0  0  0  0  0
   -1.7534   -4.1692   -0.2778 C   0  0  0  0  0  0  0  0  0  0  0  0
   -5.6780    0.5829   -0.1466 C   0  0  0  0  0  0  0  0  0  0  0  0
   -4.0384    2.3136    0.2446 C   0  0  0  0  0  0  0  0  0  0  0  0
   -3.0476   -3.8885    0.1475 C   0  0  0  0  0  0  0  0  0  0  0  0
    3.2589    0.5128   -0.2478 C   0  0  0  0  0  0  0  0  0  0  0  0
    2.8115   -0.7676   -0.5024 C   0  0  0  0  0  0  0  0  0  0  0  0
    2.3161    1.3857    0.2556 C   0  0  0  0  0  0  0  0  0  0  0  0
   -6.3102    1.3948   -1.0884 C   0  0  0  0  0  0  0  0  0  0  0  0
   -4.6705    3.1255   -0.6973 C   0  0  0  0  0  0  0  0  0  0  0  0
   -5.8065    2.6662   -1.3638 C   0  0  0  0  0  0  0  0  0  0  0  0
    5.7470    0.3832    0.0731 C   0  0  0  0  0  0  0  0  0  0  0  0
    8.1099    0.6386    0.0424 C   0  0  0  0  0  0  0  0  0  0  0  0
   -3.5742    0.7621    2.4167 H   0  0  0  0  0  0  0  0  0  0  0  0
   -4.5327   -0.6120    1.9100 H   0  0  0  0  0  0  0  0  0  0  0  0
    0.2175   -3.3588   -0.5667 H   0  0  0  0  0  0  0  0  0  0  0  0
   -3.1578    2.6877    0.7600 H   0  0  0  0  0  0  0  0  0  0  0  0
   -3.8037   -4.6688    0.1220 H   0  0  0  0  0  0  0  0  0  0  0  0
   -7.1945    1.0368   -1.6071 H   0  0  0  0  0  0  0  0  0  0  0  0
   -4.2790    4.1158   -0.9108 H   0  0  0  0  0  0  0  0  0  0  0  0
   -6.2989    3.2983   -2.0970 H   0  0  0  0  0  0  0  0  0  0  0  0
    4.6918    1.8384   -0.8598 H   0  0  0  0  0  0  0  0  0  0  0  0
    3.3707   -2.6444   -1.2007 H   0  0  0  0  0  0  0  0  0  0  0  0
    4.4807   -1.3757   -1.6113 H   0  0  0  0  0  0  0  0  0  0  0  0
    1.9995    3.3343    0.9129 H   0  0  0  0  0  0  0  0  0  0  0  0
    3.6734    2.8841    0.8056 H   0  0  0  0  0  0  0  0  0  0  0  0
    8.8701    1.2556   -0.4441 H   0  0  0  0  0  0  0  0  0  0  0  0
    8.2881   -0.4089   -0.2181 H   0  0  0  0  0  0  0  0  0  0  0  0
    8.1770    0.7864    1.1244 H   0  0  0  0  0  0  0  0  0  0  0  0
  1 20  1  0  0  0  0
  2 21  1  0  0  0  0
  3 30  1  0  0  0  0
  3 31  1  0  0  0  0
  4 30  2  0  0  0  0
  5  6  1  0  0  0  0
  5 14  2  0  0  0  0
  5 15  1  0  0  0  0
  6 16  1  0  0  0  0
  7 14  1  0  0  0  0
  7 23  2  0  0  0  0
  8 18  2  0  0  0  0
  8 25  1  0  0  0  0
  9 18  1  0  0  0  0
  9 26  2  0  0  0  0
 10 24  1  0  0  0  0
 10 30  1  0  0  0  0
 10 40  1  0  0  0  0
 11 25  1  0  0  0  0
 11 41  1  0  0  0  0
 11 42  1  0  0  0  0
 12 26  1  0  0  0  0
 12 43  1  0  0  0  0
 12 44  1  0  0  0  0
 13 14  1  0  0  0  0
 13 16  2  0  0  0  0
 13 19  1  0  0  0  0
 15 17  1  0  0  0  0
 15 32  1  0  0  0  0
 15 33  1  0  0  0  0
 16 18  1  0  0  0  0
 17 21  2  0  0  0  0
 17 22  1  0  0  0  0
 19 20  2  0  0  0  0
 19 34  1  0  0  0  0
 20 23  1  0  0  0  0
 21 27  1  0  0  0  0
 22 28  2  0  0  0  0
 22 35  1  0  0  0  0
 23 36  1  0  0  0  0
 24 25  2  0  0  0  0
 24 26  1  0  0  0  0
 27 29  2  0  0  0  0
 27 37  1  0  0  0  0
 28 29  1  0  0  0  0
 28 38  1  0  0  0  0
 29 39  1  0  0  0  0
 31 45  1  0  0  0  0
 31 46  1  0  0  0  0
 31 47  1  0  0  0  0
M  END
