DB15102
 OpenBabel07062211533D

 62 66  0  0  1  0  0  0  0  0999 V2000
   -4.7089   -2.3381    0.8445 F   0  0  0  0  0  0  0  0  0  0  0  0
   -3.1933    1.9431   -0.5333 F   0  0  0  0  0  0  0  0  0  0  0  0
    7.7880    1.6325   -1.5906 O   0  0  0  0  0  0  0  0  0  0  0  0
   -2.3002    0.9583    2.1837 O   0  0  0  0  0  0  0  0  0  0  0  0
   -5.7686    2.6811   -1.1180 O   0  0  0  0  0  0  0  0  0  0  0  0
   -7.2928   -1.6233    0.2674 O   0  0  0  0  0  0  0  0  0  0  0  0
    5.8442    0.1590   -0.1238 N   0  0  0  0  0  0  0  0  0  0  0  0
   -0.4158   -0.1804    1.4736 N   0  0  0  0  0  0  0  0  0  0  0  0
   -2.5605   -0.5905    0.4674 N   0  0  0  0  0  0  0  0  0  0  0  0
    3.4315   -2.1881   -0.5564 N   0  0  0  0  0  0  0  0  0  0  0  0
    1.3094   -2.9774   -1.3105 N   0  0  0  0  0  0  0  0  0  0  0  0
    0.2221   -1.0823    0.5650 C   0  0  0  0  0  0  0  0  0  0  0  0
    1.6274   -1.2391    0.4017 C   0  0  0  0  0  0  0  0  0  0  0  0
    5.3555   -1.0589    0.5197 C   0  0  0  0  0  0  0  0  0  0  0  0
   -0.5920   -1.8906   -0.2365 C   0  0  0  0  0  0  0  0  0  0  0  0
    3.9082   -1.2685    0.3315 C   0  0  2  0  0  0  0  0  0  0  0  0
   -2.0745   -1.8562   -0.0764 C   0  0  0  0  0  0  0  0  0  0  0  0
    2.0628   -2.1818   -0.5341 C   0  0  0  0  0  0  0  0  0  0  0  0
    2.8250   -0.6667    0.9328 C   0  0  0  0  0  0  0  0  0  0  0  0
    7.0964    0.6113    0.4984 C   0  0  0  0  0  0  0  0  0  0  0  0
    6.0464   -0.0565   -1.5633 C   0  0  0  0  0  0  0  0  0  0  0  0
   -1.8006    0.1194    1.4240 C   0  0  0  0  0  0  0  0  0  0  0  0
    7.5925    1.8756   -0.1971 C   0  0  0  0  0  0  0  0  0  0  0  0
    6.5683    1.2231   -2.2105 C   0  0  0  0  0  0  0  0  0  0  0  0
    0.3936    0.5202    2.4642 C   0  0  0  0  0  0  0  0  0  0  0  0
   -0.0099   -2.7980   -1.1192 C   0  0  0  0  0  0  0  0  0  0  0  0
   -3.9207   -0.2063    0.1620 C   0  0  0  0  0  0  0  0  0  0  0  0
    0.9566    1.8114    1.9074 C   0  0  0  0  0  0  0  0  0  0  0  0
   -4.9627   -1.1112    0.3653 C   0  0  0  0  0  0  0  0  0  0  0  0
   -4.1910    1.0682   -0.3362 C   0  0  0  0  0  0  0  0  0  0  0  0
   -5.5033    1.4381   -0.6312 C   0  0  0  0  0  0  0  0  0  0  0  0
   -6.2750   -0.7414    0.0704 C   0  0  0  0  0  0  0  0  0  0  0  0
   -6.5452    0.5331   -0.4281 C   0  0  0  0  0  0  0  0  0  0  0  0
   -7.1331    2.9911   -1.3974 C   0  0  0  0  0  0  0  0  0  0  0  0
   -8.6094   -1.1776   -0.0556 C   0  0  0  0  0  0  0  0  0  0  0  0
    5.5136   -0.9862    1.6054 H   0  0  0  0  0  0  0  0  0  0  0  0
    5.9320   -1.9390    0.2038 H   0  0  0  0  0  0  0  0  0  0  0  0
   -2.5562   -2.0257   -1.0472 H   0  0  0  0  0  0  0  0  0  0  0  0
   -2.3635   -2.6549    0.6165 H   0  0  0  0  0  0  0  0  0  0  0  0
    2.9366    0.0980    1.6853 H   0  0  0  0  0  0  0  0  0  0  0  0
    5.1074   -0.3316   -2.0553 H   0  0  0  0  0  0  0  0  0  0  0  0
    6.7686   -0.8663   -1.7311 H   0  0  0  0  0  0  0  0  0  0  0  0
    7.8617   -0.1724    0.4241 H   0  0  0  0  0  0  0  0  0  0  0  0
    6.9383    0.8341    1.5598 H   0  0  0  0  0  0  0  0  0  0  0  0
    3.9966   -2.7821   -1.1474 H   0  0  0  0  0  0  0  0  0  0  0  0
    6.8936    2.7108   -0.0657 H   0  0  0  0  0  0  0  0  0  0  0  0
    6.7771    1.0465   -3.2705 H   0  0  0  0  0  0  0  0  0  0  0  0
    5.8348    2.0364   -2.1481 H   0  0  0  0  0  0  0  0  0  0  0  0
    8.5553    2.1801    0.2256 H   0  0  0  0  0  0  0  0  0  0  0  0
   -0.2349    0.7693    3.3284 H   0  0  0  0  0  0  0  0  0  0  0  0
    1.1574   -0.1473    2.8716 H   0  0  0  0  0  0  0  0  0  0  0  0
   -0.6356   -3.4480   -1.7265 H   0  0  0  0  0  0  0  0  0  0  0  0
    0.1514    2.5378    1.7474 H   0  0  0  0  0  0  0  0  0  0  0  0
    1.6632    2.2553    2.6156 H   0  0  0  0  0  0  0  0  0  0  0  0
    1.4573    1.6906    0.9436 H   0  0  0  0  0  0  0  0  0  0  0  0
   -7.5608    0.8193   -0.6568 H   0  0  0  0  0  0  0  0  0  0  0  0
   -7.1573    4.0186   -1.7756 H   0  0  0  0  0  0  0  0  0  0  0  0
   -7.7459    2.9746   -0.4895 H   0  0  0  0  0  0  0  0  0  0  0  0
   -7.5387    2.3536   -2.1905 H   0  0  0  0  0  0  0  0  0  0  0  0
   -9.2910   -2.0062    0.1636 H   0  0  0  0  0  0  0  0  0  0  0  0
   -8.7118   -0.9593   -1.1242 H   0  0  0  0  0  0  0  0  0  0  0  0
   -8.9193   -0.3386    0.5769 H   0  0  0  0  0  0  0  0  0  0  0  0
  1 29  1  0  0  0  0
  2 30  1  0  0  0  0
  3 23  1  0  0  0  0
  3 24  1  0  0  0  0
  4 22  2  0  0  0  0
  5 31  1  0  0  0  0
  5 34  1  0  0  0  0
  6 32  1  0  0  0  0
  6 35  1  0  0  0  0
  7 14  1  0  0  0  0
  7 20  1  0  0  0  0
  7 21  1  0  0  0  0
  8 12  1  0  0  0  0
  8 22  1  0  0  0  0
  8 25  1  0  0  0  0
  9 17  1  0  0  0  0
  9 22  1  0  0  0  0
  9 27  1  0  0  0  0
 10 16  1  0  0  0  0
 10 18  2  0  0  0  0
 10 45  1  0  0  0  0
 11 18  1  0  0  0  0
 11 26  2  0  0  0  0
 12 13  1  0  0  0  0
 12 15  2  0  0  0  0
 13 18  1  0  0  0  0
 13 19  2  0  0  0  0
 14 36  1  0  0  0  0
 14 37  1  0  0  0  0
 15 17  1  0  0  0  0
 15 26  1  0  0  0  0
 16 14  1  1  0  0  0
 16 19  1  0  0  0  0
 17 38  1  0  0  0  0
 17 39  1  0  0  0  0
 19 40  1  0  0  0  0
 20 23  1  0  0  0  0
 20 43  1  0  0  0  0
 20 44  1  0  0  0  0
 21 24  1  0  0  0  0
 21 41  1  0  0  0  0
 21 42  1  0  0  0  0
 23 46  1  0  0  0  0
 23 49  1  0  0  0  0
 24 47  1  0  0  0  0
 24 48  1  0  0  0  0
 25 28  1  0  0  0  0
 25 50  1  0  0  0  0
 25 51  1  0  0  0  0
 26 52  1  0  0  0  0
 27 29  2  0  0  0  0
 27 30  1  0  0  0  0
 28 53  1  0  0  0  0
 28 54  1  0  0  0  0
 28 55  1  0  0  0  0
 29 32  1  0  0  0  0
 30 31  2  0  0  0  0
 31 33  1  0  0  0  0
 32 33  2  0  0  0  0
 33 56  1  0  0  0  0
 34 57  1  0  0  0  0
 34 58  1  0  0  0  0
 34 59  1  0  0  0  0
 35 60  1  0  0  0  0
 35 61  1  0  0  0  0
 35 62  1  0  0  0  0
M  END
