DB15467
 OpenBabel07062211533D

 36 36  0  0  0  0  0  0  0  0999 V2000
    4.6711    0.2211   -0.1748 O   0  0  0  0  0  0  0  0  0  0  0  0
    2.2418   -1.1279    0.1979 O   0  0  0  0  0  0  0  0  0  0  0  0
   -5.9793    1.6450    0.2160 O   0  0  0  0  0  0  0  0  0  0  0  0
    1.1036   -2.9212   -0.7109 O   0  0  0  0  0  0  0  0  0  0  0  0
    4.6027   -0.9663    0.6054 C   0  0  0  0  0  0  0  0  0  0  0  0
    3.4787   -1.8390    0.0810 C   0  0  0  0  0  0  0  0  0  0  0  0
   -2.4895   -0.5580   -0.2263 C   0  0  0  0  0  0  0  0  0  0  0  0
    5.6961    1.0894    0.2875 C   0  0  0  0  0  0  0  0  0  0  0  0
   -3.7252   -1.2050   -0.2100 C   0  0  0  0  0  0  0  0  0  0  0  0
   -2.4268    0.8291   -0.0940 C   0  0  0  0  0  0  0  0  0  0  0  0
   -4.8354    0.9223    0.0712 C   0  0  0  0  0  0  0  0  0  0  0  0
   -1.2670   -1.3306   -0.3817 C   0  0  0  0  0  0  0  0  0  0  0  0
   -4.8981   -0.4649   -0.0611 C   0  0  0  0  0  0  0  0  0  0  0  0
   -3.5997    1.5693    0.0548 C   0  0  0  0  0  0  0  0  0  0  0  0
    5.7193    2.3304   -0.5792 C   0  0  0  0  0  0  0  0  0  0  0  0
   -0.0290   -0.9092   -0.0406 C   0  0  0  0  0  0  0  0  0  0  0  0
    1.1401   -1.7961   -0.2385 C   0  0  0  0  0  0  0  0  0  0  0  0
   -7.2087    0.9206    0.2242 C   0  0  0  0  0  0  0  0  0  0  0  0
    5.5540   -1.5063    0.5454 H   0  0  0  0  0  0  0  0  0  0  0  0
    4.4032   -0.6952    1.6486 H   0  0  0  0  0  0  0  0  0  0  0  0
    3.4249   -2.7678    0.6593 H   0  0  0  0  0  0  0  0  0  0  0  0
    3.6503   -2.0697   -0.9768 H   0  0  0  0  0  0  0  0  0  0  0  0
    5.5025    1.3711    1.3285 H   0  0  0  0  0  0  0  0  0  0  0  0
    6.6655    0.5817    0.2307 H   0  0  0  0  0  0  0  0  0  0  0  0
   -3.7928   -2.2857   -0.3104 H   0  0  0  0  0  0  0  0  0  0  0  0
   -1.4897    1.3775   -0.1210 H   0  0  0  0  0  0  0  0  0  0  0  0
   -1.3942   -2.3279   -0.7979 H   0  0  0  0  0  0  0  0  0  0  0  0
   -5.8235   -1.0306   -0.0565 H   0  0  0  0  0  0  0  0  0  0  0  0
   -3.5454    2.6501    0.1532 H   0  0  0  0  0  0  0  0  0  0  0  0
    4.7528    2.8439   -0.5433 H   0  0  0  0  0  0  0  0  0  0  0  0
    5.9003    2.0662   -1.6264 H   0  0  0  0  0  0  0  0  0  0  0  0
    6.4992    3.0227   -0.2502 H   0  0  0  0  0  0  0  0  0  0  0  0
    0.1607    0.0622    0.4020 H   0  0  0  0  0  0  0  0  0  0  0  0
   -8.0140    1.6520    0.3479 H   0  0  0  0  0  0  0  0  0  0  0  0
   -7.3824    0.4121   -0.7302 H   0  0  0  0  0  0  0  0  0  0  0  0
   -7.2658    0.2348    1.0763 H   0  0  0  0  0  0  0  0  0  0  0  0
  1  5  1  0  0  0  0
  1  8  1  0  0  0  0
  2  6  1  0  0  0  0
  2 17  1  0  0  0  0
  3 11  1  0  0  0  0
  3 18  1  0  0  0  0
  4 17  2  0  0  0  0
  5  6  1  0  0  0  0
  5 19  1  0  0  0  0
  5 20  1  0  0  0  0
  6 21  1  0  0  0  0
  6 22  1  0  0  0  0
  7  9  2  0  0  0  0
  7 10  1  0  0  0  0
  7 12  1  0  0  0  0
  8 15  1  0  0  0  0
  8 23  1  0  0  0  0
  8 24  1  0  0  0  0
  9 13  1  0  0  0  0
  9 25  1  0  0  0  0
 10 14  2  0  0  0  0
 10 26  1  0  0  0  0
 11 13  2  0  0  0  0
 11 14  1  0  0  0  0
 12 16  2  0  0  0  0
 12 27  1  0  0  0  0
 13 28  1  0  0  0  0
 14 29  1  0  0  0  0
 15 30  1  0  0  0  0
 15 31  1  0  0  0  0
 15 32  1  0  0  0  0
 16 17  1  0  0  0  0
 16 33  1  0  0  0  0
 18 34  1  0  0  0  0
 18 35  1  0  0  0  0
 18 36  1  0  0  0  0
M  END
