DB15576
 OpenBabel07062211533D

 22 22  0  0  0  0  0  0  0  0999 V2000
    1.5080   -0.0046   -0.0087 O   0  0  0  0  0  0  0  0  0  0  0  0
   -1.8414   -2.3553   -0.1440 O   0  0  0  0  0  0  0  0  0  0  0  0
    0.6810   -1.9714    0.8554 O   0  0  0  0  0  0  0  0  0  0  0  0
   -0.8058   -0.2212    0.2146 C   0  0  0  0  0  0  0  0  0  0  0  0
   -1.9336   -0.9987   -0.0487 C   0  0  0  0  0  0  0  0  0  0  0  0
   -0.9211    1.1660    0.3067 C   0  0  0  0  0  0  0  0  0  0  0  0
    0.5013   -0.8371    0.3954 C   0  0  0  0  0  0  0  0  0  0  0  0
    2.8453   -0.4997    0.1188 C   0  0  0  0  0  0  0  0  0  0  0  0
   -3.1766   -0.3890   -0.2199 C   0  0  0  0  0  0  0  0  0  0  0  0
   -2.1641    1.7754    0.1354 C   0  0  0  0  0  0  0  0  0  0  0  0
   -3.2918    0.9979   -0.1279 C   0  0  0  0  0  0  0  0  0  0  0  0
    3.8111    0.5561   -0.3753 C   0  0  0  0  0  0  0  0  0  0  0  0
   -0.0647    1.7989    0.5241 H   0  0  0  0  0  0  0  0  0  0  0  0
    3.0498   -0.7274    1.1707 H   0  0  0  0  0  0  0  0  0  0  0  0
    2.9538   -1.4116   -0.4786 H   0  0  0  0  0  0  0  0  0  0  0  0
   -4.0636   -0.9821   -0.4256 H   0  0  0  0  0  0  0  0  0  0  0  0
   -2.2548    2.8552    0.2101 H   0  0  0  0  0  0  0  0  0  0  0  0
   -4.2596    1.4726   -0.2605 H   0  0  0  0  0  0  0  0  0  0  0  0
    4.8451    0.2102   -0.2917 H   0  0  0  0  0  0  0  0  0  0  0  0
    3.6054    0.8071   -1.4212 H   0  0  0  0  0  0  0  0  0  0  0  0
    3.6994    1.4802    0.2011 H   0  0  0  0  0  0  0  0  0  0  0  0
   -2.7231   -2.7214   -0.3303 H   0  0  0  0  0  0  0  0  0  0  0  0
  1  7  1  0  0  0  0
  1  8  1  0  0  0  0
  2  5  1  0  0  0  0
  2 22  1  0  0  0  0
  3  7  2  0  0  0  0
  4  5  2  0  0  0  0
  4  6  1  0  0  0  0
  4  7  1  0  0  0  0
  5  9  1  0  0  0  0
  6 10  2  0  0  0  0
  6 13  1  0  0  0  0
  8 12  1  0  0  0  0
  8 14  1  0  0  0  0
  8 15  1  0  0  0  0
  9 11  2  0  0  0  0
  9 16  1  0  0  0  0
 10 11  1  0  0  0  0
 10 17  1  0  0  0  0
 11 18  1  0  0  0  0
 12 19  1  0  0  0  0
 12 20  1  0  0  0  0
 12 21  1  0  0  0  0
M  END
