DB15566
 OpenBabel07062211533D

 59 62  0  0  1  0  0  0  0  0999 V2000
   -2.2273   -0.9056    1.8785 O   0  0  0  0  0  0  0  0  0  0  0  0
    0.6427    1.7265   -1.5991 O   0  0  0  0  0  0  0  0  0  0  0  0
   -4.0239   -1.5219   -0.9659 O   0  0  0  0  0  0  0  0  0  0  0  0
   -5.4874    0.4900    0.0489 O   0  0  0  0  0  0  0  0  0  0  0  0
    6.5112    1.8234    2.2392 O   0  0  0  0  0  0  0  0  0  0  0  0
   -5.8739    2.2556    1.4878 O   0  0  0  0  0  0  0  0  0  0  0  0
   -0.9827   -0.5239   -0.2081 C   0  0  1  0  0  0  0  0  0  0  0  0
    0.1851   -1.4043    0.2894 C   0  0  2  0  0  0  0  0  0  0  0  0
    1.5506   -0.9946   -0.2822 C   0  0  1  0  0  0  0  0  0  0  0  0
    1.8546    0.4836    0.1487 C   0  0  2  0  0  0  0  0  0  0  0  0
   -2.1635   -1.2466    0.4967 C   0  0  1  0  0  0  0  0  0  0  0  0
   -0.7010    0.9209    0.2507 C   0  0  0  0  0  0  0  0  0  0  0  0
   -0.3176   -2.8261    0.0529 C   0  0  0  0  0  0  0  0  0  0  0  0
    0.6780    1.4470   -0.2067 C   0  0  2  0  0  0  0  0  0  0  0  0
    3.2948    0.9524   -0.3025 C   0  0  1  0  0  0  0  0  0  0  0  0
   -1.8288   -2.7489    0.3540 C   0  0  0  0  0  0  0  0  0  0  0  0
    2.6489   -1.9546    0.2093 C   0  0  0  0  0  0  0  0  0  0  0  0
   -1.1824   -0.5826   -1.7481 C   0  0  0  0  0  0  0  0  0  0  0  0
    4.0407   -1.5138   -0.2265 C   0  0  0  0  0  0  0  0  0  0  0  0
    4.2952   -0.0922    0.2047 C   0  0  0  0  0  0  0  0  0  0  0  0
   -3.5194   -0.8939   -0.0363 C   0  0  0  0  0  0  0  0  0  0  0  0
    3.4650    1.0777   -1.8333 C   0  0  0  0  0  0  0  0  0  0  0  0
    3.5984    2.3286    0.2721 C   0  0  0  0  0  0  0  0  0  0  0  0
    5.3217    0.1924    1.0213 C   0  0  0  0  0  0  0  0  0  0  0  0
   -4.2207    0.2695    0.6322 C   0  0  0  0  0  0  0  0  0  0  0  0
    4.6176    2.6183    1.0868 C   0  0  0  0  0  0  0  0  0  0  0  0
    5.5616    1.5667    1.5069 C   0  0  0  0  0  0  0  0  0  0  0  0
   -6.2229    1.5231    0.5721 C   0  0  0  0  0  0  0  0  0  0  0  0
   -7.5360    1.6384   -0.1411 C   0  0  0  0  0  0  0  0  0  0  0  0
    0.2654   -1.2908    1.3834 H   0  0  0  0  0  0  0  0  0  0  0  0
    1.5255   -1.0599   -1.3747 H   0  0  0  0  0  0  0  0  0  0  0  0
    1.8749    0.4699    1.2521 H   0  0  0  0  0  0  0  0  0  0  0  0
   -0.7314    0.9823    1.3454 H   0  0  0  0  0  0  0  0  0  0  0  0
   -1.4846    1.5865   -0.1280 H   0  0  0  0  0  0  0  0  0  0  0  0
    0.1775   -3.5508    0.7072 H   0  0  0  0  0  0  0  0  0  0  0  0
   -0.1481   -3.1445   -0.9817 H   0  0  0  0  0  0  0  0  0  0  0  0
    0.8387    2.4059    0.2985 H   0  0  0  0  0  0  0  0  0  0  0  0
   -2.3751   -3.2447   -0.4554 H   0  0  0  0  0  0  0  0  0  0  0  0
   -2.0482   -3.2991    1.2764 H   0  0  0  0  0  0  0  0  0  0  0  0
    2.4644   -2.9643   -0.1763 H   0  0  0  0  0  0  0  0  0  0  0  0
    2.6178   -2.0252    1.3048 H   0  0  0  0  0  0  0  0  0  0  0  0
   -1.9370    0.1456   -2.0668 H   0  0  0  0  0  0  0  0  0  0  0  0
   -0.2716   -0.3655   -2.3087 H   0  0  0  0  0  0  0  0  0  0  0  0
   -1.5187   -1.5659   -2.0927 H   0  0  0  0  0  0  0  0  0  0  0  0
    4.1412   -1.5978   -1.3145 H   0  0  0  0  0  0  0  0  0  0  0  0
    4.7804   -2.2010    0.2021 H   0  0  0  0  0  0  0  0  0  0  0  0
    2.9705    1.9681   -2.2366 H   0  0  0  0  0  0  0  0  0  0  0  0
    4.5247    1.1693   -2.1064 H   0  0  0  0  0  0  0  0  0  0  0  0
    3.0696    0.2121   -2.3732 H   0  0  0  0  0  0  0  0  0  0  0  0
    2.9514    3.1515   -0.0238 H   0  0  0  0  0  0  0  0  0  0  0  0
   -2.8144   -1.5393    2.3254 H   0  0  0  0  0  0  0  0  0  0  0  0
   -0.0721    2.3665   -1.7556 H   0  0  0  0  0  0  0  0  0  0  0  0
    6.0051   -0.5749    1.3694 H   0  0  0  0  0  0  0  0  0  0  0  0
   -3.6089    1.1679    0.5180 H   0  0  0  0  0  0  0  0  0  0  0  0
   -4.3753    0.0412    1.6912 H   0  0  0  0  0  0  0  0  0  0  0  0
    4.7822    3.6269    1.4477 H   0  0  0  0  0  0  0  0  0  0  0  0
   -8.1069    0.7150   -0.0166 H   0  0  0  0  0  0  0  0  0  0  0  0
   -7.3645    1.8455   -1.2004 H   0  0  0  0  0  0  0  0  0  0  0  0
   -8.1108    2.4643    0.2875 H   0  0  0  0  0  0  0  0  0  0  0  0
  1 11  1  0  0  0  0
  1 51  1  0  0  0  0
  2 14  1  0  0  0  0
  2 52  1  0  0  0  0
  3 21  2  0  0  0  0
  4 25  1  0  0  0  0
  4 28  1  0  0  0  0
  5 27  2  0  0  0  0
  6 28  2  0  0  0  0
  7  8  1  1  0  0  0
  7 12  1  0  0  0  0
  7 18  1  0  0  0  0
  8  9  1  6  0  0  0
  8 13  1  0  0  0  0
  8 30  1  0  0  0  0
  9 10  1  1  0  0  0
  9 17  1  0  0  0  0
  9 31  1  0  0  0  0
 10 14  1  6  0  0  0
 10 32  1  0  0  0  0
 11  7  1  6  0  0  0
 11 16  1  0  0  0  0
 11 21  1  0  0  0  0
 12 14  1  0  0  0  0
 12 33  1  0  0  0  0
 12 34  1  0  0  0  0
 13 16  1  0  0  0  0
 13 35  1  0  0  0  0
 13 36  1  0  0  0  0
 14 37  1  1  0  0  0
 15 10  1  1  0  0  0
 15 20  1  0  0  0  0
 15 22  1  0  0  0  0
 15 23  1  0  0  0  0
 16 38  1  0  0  0  0
 16 39  1  0  0  0  0
 17 19  1  0  0  0  0
 17 40  1  0  0  0  0
 17 41  1  0  0  0  0
 18 42  1  0  0  0  0
 18 43  1  0  0  0  0
 18 44  1  0  0  0  0
 19 20  1  0  0  0  0
 19 45  1  0  0  0  0
 19 46  1  0  0  0  0
 20 24  2  0  0  0  0
 21 25  1  0  0  0  0
 22 47  1  0  0  0  0
 22 48  1  0  0  0  0
 22 49  1  0  0  0  0
 23 26  2  0  0  0  0
 23 50  1  0  0  0  0
 24 27  1  0  0  0  0
 24 53  1  0  0  0  0
 25 54  1  0  0  0  0
 25 55  1  0  0  0  0
 26 27  1  0  0  0  0
 26 56  1  0  0  0  0
 28 29  1  0  0  0  0
 29 57  1  0  0  0  0
 29 58  1  0  0  0  0
 29 59  1  0  0  0  0
M  END
