DB15690
 OpenBabel07062211533D

 44 47  0  0  1  0  0  0  0  0999 V2000
   -4.5656    1.4888   -1.1927 F   0  0  0  0  0  0  0  0  0  0  0  0
   -4.5615   -1.3499    0.2515 O   0  0  0  0  0  0  0  0  0  0  0  0
    6.3176    0.0013    0.4466 O   0  0  0  0  0  0  0  0  0  0  0  0
   -2.1851   -0.7132    0.1309 C   0  0  1  0  0  0  0  0  0  0  0  0
   -1.5450    0.5875   -0.3984 C   0  0  2  0  0  0  0  0  0  0  0  0
   -0.0806    0.7208    0.0194 C   0  0  1  0  0  0  0  0  0  0  0  0
    0.7217   -0.4718   -0.5837 C   0  0  2  0  0  0  0  0  0  0  0  0
   -3.6192   -0.5124   -0.3922 C   0  0  2  0  0  0  0  0  0  0  0  0
   -1.4348   -1.8989   -0.4876 C   0  0  0  0  0  0  0  0  0  0  0  0
   -2.5415    1.6683    0.0171 C   0  0  0  0  0  0  0  0  0  0  0  0
    0.0778   -1.8319   -0.2021 C   0  0  0  0  0  0  0  0  0  0  0  0
   -3.9064    0.9745   -0.1196 C   0  0  1  0  0  0  0  0  0  0  0  0
    0.5480    2.0328   -0.4540 C   0  0  0  0  0  0  0  0  0  0  0  0
   -2.1871   -0.8570    1.6743 C   0  0  0  0  0  0  0  0  0  0  0  0
    2.2110   -0.3508   -0.2718 C   0  0  0  0  0  0  0  0  0  0  0  0
    1.9571    2.1669    0.1156 C   0  0  0  0  0  0  0  0  0  0  0  0
    2.7838    0.9083    0.0130 C   0  0  0  0  0  0  0  0  0  0  0  0
    3.0634   -1.4667   -0.3468 C   0  0  0  0  0  0  0  0  0  0  0  0
    4.1637    1.0096    0.2636 C   0  0  0  0  0  0  0  0  0  0  0  0
    4.4339   -1.3503   -0.1042 C   0  0  0  0  0  0  0  0  0  0  0  0
    4.9838   -0.1132    0.2055 C   0  0  0  0  0  0  0  0  0  0  0  0
   -1.5626    0.5647   -1.5011 H   0  0  0  0  0  0  0  0  0  0  0  0
   -0.0082    0.6971    1.1143 H   0  0  0  0  0  0  0  0  0  0  0  0
    0.6547   -0.3964   -1.6802 H   0  0  0  0  0  0  0  0  0  0  0  0
   -3.6790   -0.7124   -1.4693 H   0  0  0  0  0  0  0  0  0  0  0  0
   -1.5803   -1.9069   -1.5758 H   0  0  0  0  0  0  0  0  0  0  0  0
   -1.8379   -2.8491   -0.1172 H   0  0  0  0  0  0  0  0  0  0  0  0
   -2.3708    1.9742    1.0551 H   0  0  0  0  0  0  0  0  0  0  0  0
   -2.4723    2.5564   -0.6184 H   0  0  0  0  0  0  0  0  0  0  0  0
    0.2691   -2.0488    0.8558 H   0  0  0  0  0  0  0  0  0  0  0  0
    0.5463   -2.6448   -0.7689 H   0  0  0  0  0  0  0  0  0  0  0  0
   -4.5351    1.1386    0.7609 H   0  0  0  0  0  0  0  0  0  0  0  0
   -0.0457    2.8964   -0.1340 H   0  0  0  0  0  0  0  0  0  0  0  0
    0.5840    2.0588   -1.5507 H   0  0  0  0  0  0  0  0  0  0  0  0
   -1.1807   -0.8541    2.1008 H   0  0  0  0  0  0  0  0  0  0  0  0
   -2.7452   -0.0556    2.1686 H   0  0  0  0  0  0  0  0  0  0  0  0
   -2.6531   -1.8035    1.9722 H   0  0  0  0  0  0  0  0  0  0  0  0
    1.8886    2.4380    1.1770 H   0  0  0  0  0  0  0  0  0  0  0  0
    2.4665    2.9891   -0.4014 H   0  0  0  0  0  0  0  0  0  0  0  0
   -5.4437   -1.0983   -0.0709 H   0  0  0  0  0  0  0  0  0  0  0  0
    2.6811   -2.4501   -0.6033 H   0  0  0  0  0  0  0  0  0  0  0  0
    4.5996    1.9770    0.5048 H   0  0  0  0  0  0  0  0  0  0  0  0
    5.0597   -2.2369   -0.1651 H   0  0  0  0  0  0  0  0  0  0  0  0
    6.7297   -0.8757    0.3628 H   0  0  0  0  0  0  0  0  0  0  0  0
  1 12  1  0  0  0  0
  2  8  1  0  0  0  0
  2 40  1  0  0  0  0
  3 21  1  0  0  0  0
  3 44  1  0  0  0  0
  4  5  1  6  0  0  0
  4  9  1  0  0  0  0
  4 14  1  0  0  0  0
  5  6  1  1  0  0  0
  5 10  1  0  0  0  0
  5 22  1  0  0  0  0
  6  7  1  6  0  0  0
  6 13  1  0  0  0  0
  6 23  1  0  0  0  0
  7 11  1  0  0  0  0
  7 15  1  0  0  0  0
  7 24  1  6  0  0  0
  8  4  1  1  0  0  0
  8 25  1  0  0  0  0
  9 11  1  0  0  0  0
  9 26  1  0  0  0  0
  9 27  1  0  0  0  0
 10 12  1  0  0  0  0
 10 28  1  0  0  0  0
 10 29  1  0  0  0  0
 11 30  1  0  0  0  0
 11 31  1  0  0  0  0
 12  8  1  6  0  0  0
 12 32  1  0  0  0  0
 13 16  1  0  0  0  0
 13 33  1  0  0  0  0
 13 34  1  0  0  0  0
 14 35  1  0  0  0  0
 14 36  1  0  0  0  0
 14 37  1  0  0  0  0
 15 17  2  0  0  0  0
 15 18  1  0  0  0  0
 16 17  1  0  0  0  0
 16 38  1  0  0  0  0
 16 39  1  0  0  0  0
 17 19  1  0  0  0  0
 18 20  2  0  0  0  0
 18 41  1  0  0  0  0
 19 21  2  0  0  0  0
 19 42  1  0  0  0  0
 20 21  1  0  0  0  0
 20 43  1  0  0  0  0
M  END
