DB15442
 OpenBabel07062211533D

 63 68  0  0  1  0  0  0  0  0999 V2000
   -7.6769   -0.5558    0.2786 O   0  0  0  0  0  0  0  0  0  0  0  0
   -4.1823    0.2862   -0.1598 N   0  0  0  0  0  0  0  0  0  0  0  0
   -5.8974   -1.9236   -0.1740 N   0  0  0  0  0  0  0  0  0  0  0  0
   -2.2829    1.8104   -0.1088 N   0  0  0  0  0  0  0  0  0  0  0  0
   -2.9327    4.1505   -0.1067 N   0  0  0  0  0  0  0  0  0  0  0  0
    4.0295    0.6110   -0.0422 N   0  0  0  0  0  0  0  0  0  0  0  0
    6.3437   -1.0472    0.1896 N   0  0  0  0  0  0  0  0  0  0  0  0
   -0.6824    3.5129   -0.0839 N   0  0  0  0  0  0  0  0  0  0  0  0
    0.4337    1.4184   -0.0791 N   0  0  0  0  0  0  0  0  0  0  0  0
   -3.5367   -1.0502   -0.1248 C   0  0  0  0  0  0  0  0  0  0  0  0
   -2.2508   -1.1240   -0.9954 C   0  0  0  0  0  0  0  0  0  0  0  0
   -3.1795   -1.3858    1.3466 C   0  0  0  0  0  0  0  0  0  0  0  0
   -4.5564   -2.0730   -0.7076 C   0  0  0  0  0  0  0  0  0  0  0  0
   -2.3958   -2.6896    1.5076 C   0  0  0  0  0  0  0  0  0  0  0  0
   -1.5030   -2.4513   -0.8487 C   0  0  0  0  0  0  0  0  0  0  0  0
   -1.1631   -2.7349    0.6110 C   0  0  0  0  0  0  0  0  0  0  0  0
   -5.5607    0.4253   -0.0847 C   0  0  1  0  0  0  0  0  0  0  0  0
   -3.6001    1.5334   -0.1325 C   0  0  0  0  0  0  0  0  0  0  0  0
   -6.4818   -0.6848    0.0209 C   0  0  0  0  0  0  0  0  0  0  0  0
   -4.6201    2.4802   -0.1223 C   0  0  0  0  0  0  0  0  0  0  0  0
   -5.8461    1.7769   -0.0958 C   0  0  0  0  0  0  0  0  0  0  0  0
   -4.2427    3.8229   -0.1141 C   0  0  0  0  0  0  0  0  0  0  0  0
   -2.0446    3.1353   -0.1008 C   0  0  0  0  0  0  0  0  0  0  0  0
    4.0554   -0.7073   -0.6831 C   0  0  0  0  0  0  0  0  0  0  0  0
    4.9504    0.7862    1.0879 C   0  0  0  0  0  0  0  0  0  0  0  0
    6.3598    0.3262    0.7082 C   0  0  0  0  0  0  0  0  0  0  0  0
    5.4939   -1.1200   -1.0051 C   0  0  0  0  0  0  0  0  0  0  0  0
    2.8506    1.3648   -0.0527 C   0  0  0  0  0  0  0  0  0  0  0  0
    0.5105    2.7682   -0.0734 C   0  0  0  0  0  0  0  0  0  0  0  0
    7.7014   -1.4951   -0.1185 C   0  0  0  0  0  0  0  0  0  0  0  0
    2.8887    2.7547   -0.0473 C   0  0  0  0  0  0  0  0  0  0  0  0
    1.6089    0.7502   -0.0684 C   0  0  0  0  0  0  0  0  0  0  0  0
    1.7007    3.4773   -0.0578 C   0  0  0  0  0  0  0  0  0  0  0  0
   -1.5438   -0.3413   -0.7149 H   0  0  0  0  0  0  0  0  0  0  0  0
   -2.4927   -0.9510   -2.0516 H   0  0  0  0  0  0  0  0  0  0  0  0
   -4.0849   -1.4351    1.9647 H   0  0  0  0  0  0  0  0  0  0  0  0
   -2.5742   -0.5714    1.7684 H   0  0  0  0  0  0  0  0  0  0  0  0
   -4.6523   -1.9343   -1.7924 H   0  0  0  0  0  0  0  0  0  0  0  0
   -4.2613   -3.1120   -0.5392 H   0  0  0  0  0  0  0  0  0  0  0  0
   -2.0868   -2.7985    2.5539 H   0  0  0  0  0  0  0  0  0  0  0  0
   -3.0423   -3.5467    1.2882 H   0  0  0  0  0  0  0  0  0  0  0  0
   -2.0958   -3.2743   -1.2625 H   0  0  0  0  0  0  0  0  0  0  0  0
   -0.5769   -2.4111   -1.4343 H   0  0  0  0  0  0  0  0  0  0  0  0
   -0.6825   -3.7163    0.6939 H   0  0  0  0  0  0  0  0  0  0  0  0
   -0.4340   -1.9946    0.9631 H   0  0  0  0  0  0  0  0  0  0  0  0
   -6.4854   -2.7486   -0.1053 H   0  0  0  0  0  0  0  0  0  0  0  0
   -6.8374    2.2086   -0.0567 H   0  0  0  0  0  0  0  0  0  0  0  0
   -4.9490    4.6437   -0.1034 H   0  0  0  0  0  0  0  0  0  0  0  0
    5.0079    1.8338    1.4051 H   0  0  0  0  0  0  0  0  0  0  0  0
    4.5824    0.2082    1.9456 H   0  0  0  0  0  0  0  0  0  0  0  0
    3.5967   -1.4529   -0.0208 H   0  0  0  0  0  0  0  0  0  0  0  0
    3.4875   -0.6933   -1.6218 H   0  0  0  0  0  0  0  0  0  0  0  0
    5.4774   -2.1461   -1.3924 H   0  0  0  0  0  0  0  0  0  0  0  0
    5.8903   -0.4766   -1.8022 H   0  0  0  0  0  0  0  0  0  0  0  0
    6.7836    1.0164   -0.0339 H   0  0  0  0  0  0  0  0  0  0  0  0
    6.9909    0.3814    1.6034 H   0  0  0  0  0  0  0  0  0  0  0  0
   -0.5611    4.5210   -0.0784 H   0  0  0  0  0  0  0  0  0  0  0  0
    8.3259   -1.4751    0.7816 H   0  0  0  0  0  0  0  0  0  0  0  0
    8.1802   -0.8742   -0.8843 H   0  0  0  0  0  0  0  0  0  0  0  0
    7.6929   -2.5324   -0.4712 H   0  0  0  0  0  0  0  0  0  0  0  0
    3.8337    3.2912   -0.0477 H   0  0  0  0  0  0  0  0  0  0  0  0
    1.4935   -0.3289   -0.0613 H   0  0  0  0  0  0  0  0  0  0  0  0
    1.7260    4.5622   -0.0564 H   0  0  0  0  0  0  0  0  0  0  0  0
  1 19  2  0  0  0  0
  2 10  1  0  0  0  0
  2 17  1  0  0  0  0
  2 18  2  0  0  0  0
  3 13  1  0  0  0  0
  3 19  1  0  0  0  0
  3 46  1  0  0  0  0
  4 18  1  0  0  0  0
  4 23  2  0  0  0  0
  5 22  2  0  0  0  0
  5 23  1  0  0  0  0
  6 24  1  0  0  0  0
  6 25  1  0  0  0  0
  6 28  1  0  0  0  0
  7 26  1  0  0  0  0
  7 27  1  0  0  0  0
  7 30  1  0  0  0  0
  8 23  1  0  0  0  0
  8 29  1  0  0  0  0
  8 57  1  0  0  0  0
  9 29  2  0  0  0  0
  9 32  1  0  0  0  0
 10 11  1  0  0  0  0
 10 12  1  0  0  0  0
 10 13  1  0  0  0  0
 11 15  1  0  0  0  0
 11 34  1  0  0  0  0
 11 35  1  0  0  0  0
 12 14  1  0  0  0  0
 12 36  1  0  0  0  0
 12 37  1  0  0  0  0
 13 38  1  0  0  0  0
 13 39  1  0  0  0  0
 14 16  1  0  0  0  0
 14 40  1  0  0  0  0
 14 41  1  0  0  0  0
 15 16  1  0  0  0  0
 15 42  1  0  0  0  0
 15 43  1  0  0  0  0
 16 44  1  0  0  0  0
 16 45  1  0  0  0  0
 17 19  1  1  0  0  0
 17 21  1  0  0  0  0
 18 20  1  0  0  0  0
 20 21  2  0  0  0  0
 20 22  1  0  0  0  0
 21 47  1  0  0  0  0
 22 48  1  0  0  0  0
 24 27  1  0  0  0  0
 24 51  1  0  0  0  0
 24 52  1  0  0  0  0
 25 26  1  0  0  0  0
 25 49  1  0  0  0  0
 25 50  1  0  0  0  0
 26 55  1  0  0  0  0
 26 56  1  0  0  0  0
 27 53  1  0  0  0  0
 27 54  1  0  0  0  0
 28 31  1  0  0  0  0
 28 32  2  0  0  0  0
 29 33  1  0  0  0  0
 30 58  1  0  0  0  0
 30 59  1  0  0  0  0
 30 60  1  0  0  0  0
 31 33  2  0  0  0  0
 31 61  1  0  0  0  0
 32 62  1  0  0  0  0
 33 63  1  0  0  0  0
M  END
