DB15480
 OpenBabel07062211533D

 19 19  0  0  0  0  0  0  0  0999 V2000
   -1.2845   -0.0635    0.7171 O   0  0  0  0  0  0  0  0  0  0  0  0
    2.9579    1.9516   -0.1372 O   0  0  0  0  0  0  0  0  0  0  0  0
   -1.7319   -0.0104   -1.5800 O   0  0  0  0  0  0  0  0  0  0  0  0
    0.0410   -0.1822    0.4322 C   0  0  0  0  0  0  0  0  0  0  0  0
    0.8297    0.9598    0.2918 C   0  0  0  0  0  0  0  0  0  0  0  0
    0.6111   -1.4463    0.2809 C   0  0  0  0  0  0  0  0  0  0  0  0
    2.1882    0.8376   -0.0001 C   0  0  0  0  0  0  0  0  0  0  0  0
    1.9696   -1.5685   -0.0108 C   0  0  0  0  0  0  0  0  0  0  0  0
    2.7581   -0.4266   -0.1513 C   0  0  0  0  0  0  0  0  0  0  0  0
   -2.1102    0.0166   -0.4165 C   0  0  0  0  0  0  0  0  0  0  0  0
   -3.5452    0.1446    0.0011 C   0  0  0  0  0  0  0  0  0  0  0  0
    0.3798    1.9424    0.4115 H   0  0  0  0  0  0  0  0  0  0  0  0
    0.0027   -2.3400    0.3896 H   0  0  0  0  0  0  0  0  0  0  0  0
    2.4133   -2.5528   -0.1285 H   0  0  0  0  0  0  0  0  0  0  0  0
    3.8158   -0.5282   -0.3787 H   0  0  0  0  0  0  0  0  0  0  0  0
   -3.8391   -0.7313    0.5843 H   0  0  0  0  0  0  0  0  0  0  0  0
   -4.1785    0.2006   -0.8889 H   0  0  0  0  0  0  0  0  0  0  0  0
   -3.6796    1.0589    0.5840 H   0  0  0  0  0  0  0  0  0  0  0  0
    2.4018    2.7378   -0.0005 H   0  0  0  0  0  0  0  0  0  0  0  0
  1  4  1  0  0  0  0
  1 10  1  0  0  0  0
  2  7  1  0  0  0  0
  2 19  1  0  0  0  0
  3 10  2  0  0  0  0
  4  5  2  0  0  0  0
  4  6  1  0  0  0  0
  5  7  1  0  0  0  0
  5 12  1  0  0  0  0
  6  8  2  0  0  0  0
  6 13  1  0  0  0  0
  7  9  2  0  0  0  0
  8  9  1  0  0  0  0
  8 14  1  0  0  0  0
  9 15  1  0  0  0  0
 10 11  1  0  0  0  0
 11 16  1  0  0  0  0
 11 17  1  0  0  0  0
 11 18  1  0  0  0  0
M  END
