DB15685
 OpenBabel07062211533D

 70 75  0  0  1  0  0  0  0  0999 V2000
   -8.0050    4.0847   -1.3858 O   0  0  0  0  0  0  0  0  0  0  0  0
    5.7967    1.2537    0.0871 O   0  0  0  0  0  0  0  0  0  0  0  0
    9.1269    2.7673    0.0967 O   0  0  0  0  0  0  0  0  0  0  0  0
   -4.8709   -0.8921    0.8395 N   0  0  0  0  0  0  0  0  0  0  0  0
   -2.2458   -1.7333    0.2875 N   0  0  0  0  0  0  0  0  0  0  0  0
   -0.3607   -1.3241   -1.0778 N   0  0  0  0  0  0  0  0  0  0  0  0
   -6.8637    3.0211    0.3323 N   0  0  0  0  0  0  0  0  0  0  0  0
    5.5344   -2.2869   -0.7947 N   0  0  0  0  0  0  0  0  0  0  0  0
    6.1744   -3.4279   -1.1686 N   0  0  0  0  0  0  0  0  0  0  0  0
    1.6744   -5.0688   -1.0734 N   0  0  0  0  0  0  0  0  0  0  0  0
   -4.3818   -2.1316    1.5179 C   0  0  1  0  0  0  0  0  0  0  0  0
   -4.6298   -1.6165   -0.4462 C   0  0  2  0  0  0  0  0  0  0  0  0
   -4.8662   -2.9529    0.2984 C   0  0  0  0  0  0  0  0  0  0  0  0
   -2.8462   -2.0839    1.5905 C   0  0  0  0  0  0  0  0  0  0  0  0
   -3.1534   -1.4459   -0.8419 C   0  0  0  0  0  0  0  0  0  0  0  0
   -6.2890   -0.6445    1.0833 C   0  0  0  0  0  0  0  0  0  0  0  0
   -0.8620   -1.6479    0.1352 C   0  0  0  0  0  0  0  0  0  0  0  0
   -6.7663    0.6063    0.3943 C   0  0  0  0  0  0  0  0  0  0  0  0
   -0.0840   -1.9047    1.2526 C   0  0  0  0  0  0  0  0  0  0  0  0
   -7.5220    0.5385   -0.7710 C   0  0  0  0  0  0  0  0  0  0  0  0
   -6.4667    1.8605    0.9009 C   0  0  0  0  0  0  0  0  0  0  0  0
    1.2974   -1.8241    1.1164 C   0  0  0  0  0  0  0  0  0  0  0  0
    0.9863   -1.2554   -1.1719 C   0  0  0  0  0  0  0  0  0  0  0  0
    1.8508   -1.4939   -0.1157 C   0  0  0  0  0  0  0  0  0  0  0  0
   -7.9488    1.7109   -1.3852 C   0  0  0  0  0  0  0  0  0  0  0  0
   -7.5964    2.9157   -0.7990 C   0  0  0  0  0  0  0  0  0  0  0  0
    3.3153   -1.3992   -0.2938 C   0  0  0  0  0  0  0  0  0  0  0  0
    4.1549   -2.4997   -0.6824 C   0  0  0  0  0  0  0  0  0  0  0  0
    3.9011   -0.2021   -0.0521 C   0  0  0  0  0  0  0  0  0  0  0  0
    5.3341   -0.0100   -0.1823 C   0  0  0  0  0  0  0  0  0  0  0  0
    3.9324   -3.8178   -1.0089 C   0  0  0  0  0  0  0  0  0  0  0  0
    6.1140   -1.0407   -0.5438 C   0  0  0  0  0  0  0  0  0  0  0  0
   -7.6162    5.2930   -0.7434 C   0  0  0  0  0  0  0  0  0  0  0  0
    5.2045   -4.3330   -1.2937 C   0  0  0  0  0  0  0  0  0  0  0  0
    7.7062    2.7375    0.2558 C   0  0  0  0  0  0  0  0  0  0  0  0
    7.2029    1.3260   -0.0707 C   0  0  0  0  0  0  0  0  0  0  0  0
    7.1218    3.7861   -0.6913 C   0  0  0  0  0  0  0  0  0  0  0  0
    7.3828    3.0941    1.7078 C   0  0  0  0  0  0  0  0  0  0  0  0
    2.6893   -4.5066   -1.0443 C   0  0  0  0  0  0  0  0  0  0  0  0
   -5.3145   -1.4059   -1.2732 H   0  0  0  0  0  0  0  0  0  0  0  0
   -4.8492   -2.3779    2.4770 H   0  0  0  0  0  0  0  0  0  0  0  0
   -4.2511   -3.8061   -0.0033 H   0  0  0  0  0  0  0  0  0  0  0  0
   -5.9071   -3.2907    0.3437 H   0  0  0  0  0  0  0  0  0  0  0  0
   -2.9269   -2.1236   -1.6742 H   0  0  0  0  0  0  0  0  0  0  0  0
   -2.5607   -1.3437    2.3490 H   0  0  0  0  0  0  0  0  0  0  0  0
   -2.4930   -3.0713    1.9133 H   0  0  0  0  0  0  0  0  0  0  0  0
   -2.9888   -0.4195   -1.1933 H   0  0  0  0  0  0  0  0  0  0  0  0
   -6.4433   -0.5023    2.1618 H   0  0  0  0  0  0  0  0  0  0  0  0
   -6.9472   -1.4790    0.8115 H   0  0  0  0  0  0  0  0  0  0  0  0
   -0.4710   -2.1649    2.2302 H   0  0  0  0  0  0  0  0  0  0  0  0
   -7.7848   -0.4200   -1.2098 H   0  0  0  0  0  0  0  0  0  0  0  0
   -5.8806    1.9785    1.8071 H   0  0  0  0  0  0  0  0  0  0  0  0
    1.9307   -2.0219    1.9777 H   0  0  0  0  0  0  0  0  0  0  0  0
    1.3551   -0.9940   -2.1595 H   0  0  0  0  0  0  0  0  0  0  0  0
   -8.5387    1.6751   -2.2945 H   0  0  0  0  0  0  0  0  0  0  0  0
    3.3151    0.6618    0.2522 H   0  0  0  0  0  0  0  0  0  0  0  0
    7.1876   -1.0251   -0.6737 H   0  0  0  0  0  0  0  0  0  0  0  0
   -6.5257    5.3907   -0.7171 H   0  0  0  0  0  0  0  0  0  0  0  0
   -8.0381    5.3551    0.2655 H   0  0  0  0  0  0  0  0  0  0  0  0
   -8.0151    6.1279   -1.3271 H   0  0  0  0  0  0  0  0  0  0  0  0
    7.4999    1.1013   -1.1054 H   0  0  0  0  0  0  0  0  0  0  0  0
    7.7191    0.6320    0.6085 H   0  0  0  0  0  0  0  0  0  0  0  0
    5.4739   -5.3371   -1.5904 H   0  0  0  0  0  0  0  0  0  0  0  0
    7.8374    2.3726    2.3964 H   0  0  0  0  0  0  0  0  0  0  0  0
    7.7991    4.0734    1.9715 H   0  0  0  0  0  0  0  0  0  0  0  0
    6.3045    3.1214    1.8949 H   0  0  0  0  0  0  0  0  0  0  0  0
    7.3846    3.5587   -1.7308 H   0  0  0  0  0  0  0  0  0  0  0  0
    7.5327    4.7800   -0.4793 H   0  0  0  0  0  0  0  0  0  0  0  0
    6.0313    3.8435   -0.6148 H   0  0  0  0  0  0  0  0  0  0  0  0
    9.4391    3.6590    0.3272 H   0  0  0  0  0  0  0  0  0  0  0  0
  1 26  1  0  0  0  0
  1 33  1  0  0  0  0
  2 30  1  0  0  0  0
  2 36  1  0  0  0  0
  3 35  1  0  0  0  0
  3 70  1  0  0  0  0
  4 11  1  0  0  0  0
  4 12  1  0  0  0  0
  4 16  1  0  0  0  0
  5 14  1  0  0  0  0
  5 15  1  0  0  0  0
  5 17  1  0  0  0  0
  6 17  2  0  0  0  0
  6 23  1  0  0  0  0
  7 21  2  0  0  0  0
  7 26  1  0  0  0  0
  8  9  1  0  0  0  0
  8 28  1  0  0  0  0
  8 32  2  0  0  0  0
  9 34  2  0  0  0  0
 10 39  3  0  0  0  0
 11 13  1  0  0  0  0
 11 14  1  0  0  0  0
 11 41  1  1  0  0  0
 12 13  1  0  0  0  0
 12 15  1  0  0  0  0
 12 40  1  6  0  0  0
 13 42  1  0  0  0  0
 13 43  1  0  0  0  0
 14 45  1  0  0  0  0
 14 46  1  0  0  0  0
 15 44  1  0  0  0  0
 15 47  1  0  0  0  0
 16 18  1  0  0  0  0
 16 48  1  0  0  0  0
 16 49  1  0  0  0  0
 17 19  1  0  0  0  0
 18 20  2  0  0  0  0
 18 21  1  0  0  0  0
 19 22  2  0  0  0  0
 19 50  1  0  0  0  0
 20 25  1  0  0  0  0
 20 51  1  0  0  0  0
 21 52  1  0  0  0  0
 22 24  1  0  0  0  0
 22 53  1  0  0  0  0
 23 24  2  0  0  0  0
 23 54  1  0  0  0  0
 24 27  1  0  0  0  0
 25 26  2  0  0  0  0
 25 55  1  0  0  0  0
 27 28  2  0  0  0  0
 27 29  1  0  0  0  0
 28 31  2  0  0  0  0
 29 30  2  0  0  0  0
 29 56  1  0  0  0  0
 30 32  1  0  0  0  0
 31 34  1  0  0  0  0
 31 39  1  0  0  0  0
 32 57  1  0  0  0  0
 33 58  1  0  0  0  0
 33 59  1  0  0  0  0
 33 60  1  0  0  0  0
 34 63  1  0  0  0  0
 35 36  1  0  0  0  0
 35 37  1  0  0  0  0
 35 38  1  0  0  0  0
 36 61  1  0  0  0  0
 36 62  1  0  0  0  0
 37 67  1  0  0  0  0
 37 68  1  0  0  0  0
 37 69  1  0  0  0  0
 38 64  1  0  0  0  0
 38 65  1  0  0  0  0
 38 66  1  0  0  0  0
M  END
