DB16022
 OpenBabel07062211533D

 37 38  0  0  0  0  0  0  0  0999 V2000
   -3.0912   -3.3418   -1.5623 S   0  0  0  0  0  0  0  0  0  0  0  0
   -0.3982   -0.0093    0.1718 N   0  0  0  0  0  0  0  0  0  0  0  0
    3.2929    0.0388   -0.2360 N   0  0  0  0  0  0  0  0  0  0  0  0
   -2.2970    1.3362    0.6820 N   0  0  0  0  0  0  0  0  0  0  0  0
    0.8675   -0.2126   -0.4917 C   0  0  0  0  0  0  0  0  0  0  0  0
    1.9999    0.2632    0.4096 C   0  0  0  0  0  0  0  0  0  0  0  0
   -0.9509   -1.1008    0.9755 C   0  0  0  0  0  0  0  0  0  0  0  0
   -1.1025    1.1966    0.0489 C   0  0  0  0  0  0  0  0  0  0  0  0
   -1.9773   -1.8953    0.2123 C   0  0  0  0  0  0  0  0  0  0  0  0
    3.4696   -1.3791   -0.5475 C   0  0  0  0  0  0  0  0  0  0  0  0
    4.3802    0.5138    0.6188 C   0  0  0  0  0  0  0  0  0  0  0  0
   -0.5341    2.2037   -0.7266 C   0  0  0  0  0  0  0  0  0  0  0  0
   -3.3104   -2.0523    0.6487 C   0  0  0  0  0  0  0  0  0  0  0  0
   -1.7063   -2.5321   -0.9633 C   0  0  0  0  0  0  0  0  0  0  0  0
   -4.0360   -2.8247   -0.2312 C   0  0  0  0  0  0  0  0  0  0  0  0
   -1.2206    3.4057   -0.8580 C   0  0  0  0  0  0  0  0  0  0  0  0
   -2.9353    2.5184    0.5311 C   0  0  0  0  0  0  0  0  0  0  0  0
   -2.4447    3.5741   -0.2203 C   0  0  0  0  0  0  0  0  0  0  0  0
    0.9634   -1.2902   -0.6608 H   0  0  0  0  0  0  0  0  0  0  0  0
    0.9134    0.2105   -1.5015 H   0  0  0  0  0  0  0  0  0  0  0  0
    1.8814    1.3337    0.6165 H   0  0  0  0  0  0  0  0  0  0  0  0
    1.9508   -0.2493    1.3802 H   0  0  0  0  0  0  0  0  0  0  0  0
   -1.3714   -0.7149    1.9133 H   0  0  0  0  0  0  0  0  0  0  0  0
   -0.1496   -1.7854    1.2857 H   0  0  0  0  0  0  0  0  0  0  0  0
    2.8573   -1.6906   -1.3995 H   0  0  0  0  0  0  0  0  0  0  0  0
    3.2611   -2.0288    0.3105 H   0  0  0  0  0  0  0  0  0  0  0  0
    4.5021   -1.5734   -0.8636 H   0  0  0  0  0  0  0  0  0  0  0  0
    5.3459    0.4009    0.1133 H   0  0  0  0  0  0  0  0  0  0  0  0
    4.4241   -0.0263    1.5716 H   0  0  0  0  0  0  0  0  0  0  0  0
    4.2641    1.5821    0.8327 H   0  0  0  0  0  0  0  0  0  0  0  0
    0.4216    2.1368   -1.2302 H   0  0  0  0  0  0  0  0  0  0  0  0
   -3.7314   -1.6306    1.5523 H   0  0  0  0  0  0  0  0  0  0  0  0
   -0.7784   -2.5810   -1.5143 H   0  0  0  0  0  0  0  0  0  0  0  0
   -5.0759   -3.1099   -0.1561 H   0  0  0  0  0  0  0  0  0  0  0  0
   -0.8015    4.2121   -1.4524 H   0  0  0  0  0  0  0  0  0  0  0  0
   -3.8856    2.5989    1.0484 H   0  0  0  0  0  0  0  0  0  0  0  0
   -2.9969    4.5027   -0.3078 H   0  0  0  0  0  0  0  0  0  0  0  0
  1 14  1  0  0  0  0
  1 15  1  0  0  0  0
  2  5  1  0  0  0  0
  2  7  1  0  0  0  0
  2  8  1  0  0  0  0
  3  6  1  0  0  0  0
  3 10  1  0  0  0  0
  3 11  1  0  0  0  0
  4  8  2  0  0  0  0
  4 17  1  0  0  0  0
  5  6  1  0  0  0  0
  5 19  1  0  0  0  0
  5 20  1  0  0  0  0
  6 21  1  0  0  0  0
  6 22  1  0  0  0  0
  7  9  1  0  0  0  0
  7 23  1  0  0  0  0
  7 24  1  0  0  0  0
  8 12  1  0  0  0  0
  9 13  1  0  0  0  0
  9 14  2  0  0  0  0
 10 25  1  0  0  0  0
 10 26  1  0  0  0  0
 10 27  1  0  0  0  0
 11 28  1  0  0  0  0
 11 29  1  0  0  0  0
 11 30  1  0  0  0  0
 12 16  2  0  0  0  0
 12 31  1  0  0  0  0
 13 15  2  0  0  0  0
 13 32  1  0  0  0  0
 14 33  1  0  0  0  0
 15 34  1  0  0  0  0
 16 18  1  0  0  0  0
 16 35  1  0  0  0  0
 17 18  2  0  0  0  0
 17 36  1  0  0  0  0
 18 37  1  0  0  0  0
M  END
