DB16098
 OpenBabel07062211533D

 66 71  0  0  1  0  0  0  0  0999 V2000
    7.0786   -0.1865    1.1821 F   0  0  0  0  0  0  0  0  0  0  0  0
    3.6982   -2.5448   -1.1743 F   0  0  0  0  0  0  0  0  0  0  0  0
    3.7132    4.4080    1.2574 F   0  0  0  0  0  0  0  0  0  0  0  0
    5.6858    3.6579    0.6886 F   0  0  0  0  0  0  0  0  0  0  0  0
    4.8755    5.4395   -0.2722 F   0  0  0  0  0  0  0  0  0  0  0  0
    5.4663   -4.5559   -1.6858 F   0  0  0  0  0  0  0  0  0  0  0  0
   -6.0028    1.3436    2.4241 O   0  0  0  0  0  0  0  0  0  0  0  0
    1.4473    2.7424    0.2821 O   0  0  0  0  0  0  0  0  0  0  0  0
    0.5510   -0.7096    3.0305 O   0  0  0  0  0  0  0  0  0  0  0  0
    3.5650    2.0485   -0.3557 N   0  0  0  0  0  0  0  0  0  0  0  0
    0.6884    0.2319    0.9158 N   0  0  0  0  0  0  0  0  0  0  0  0
   -7.7646    1.2294    0.8828 N   0  0  0  0  0  0  0  0  0  0  0  0
   -3.3653   -2.0011    2.2965 N   0  0  0  0  0  0  0  0  0  0  0  0
   -9.1419    0.6624   -1.0402 N   0  0  0  0  0  0  0  0  0  0  0  0
   -5.8429   -0.0817    0.4017 C   0  0  2  0  0  0  0  0  0  0  0  0
    4.3813   -0.2152    0.2975 C   0  0  1  0  0  0  0  0  0  0  0  0
    4.4570    0.9327   -0.7349 C   0  0  1  0  0  0  0  0  0  0  0  0
   -4.5190    0.5021   -0.1480 C   0  0  0  0  0  0  0  0  0  0  0  0
   -5.5051   -1.4078    1.1217 C   0  0  0  0  0  0  0  0  0  0  0  0
    2.9193   -0.6417    0.4576 C   0  0  0  0  0  0  0  0  0  0  0  0
    2.0965    0.5350    0.9588 C   0  0  1  0  0  0  0  0  0  0  0  0
   -3.5084   -0.1546    0.7340 C   0  0  0  0  0  0  0  0  0  0  0  0
   -6.9178   -0.2193   -0.6394 C   0  0  0  0  0  0  0  0  0  0  0  0
   -4.0497   -1.2165    1.4468 C   0  0  0  0  0  0  0  0  0  0  0  0
   -6.5026    0.9173    1.3937 C   0  0  0  0  0  0  0  0  0  0  0  0
    2.3090    1.8596    0.2285 C   0  0  0  0  0  0  0  0  0  0  0  0
    5.3649   -1.3390    0.0106 C   0  0  0  0  0  0  0  0  0  0  0  0
    4.1552    0.4919   -2.1756 C   0  0  0  0  0  0  0  0  0  0  0  0
   -8.0167    0.5637   -0.3146 C   0  0  0  0  0  0  0  0  0  0  0  0
    3.9210    3.3723   -0.8564 C   0  0  0  0  0  0  0  0  0  0  0  0
   -2.1678    0.1406    0.8852 C   0  0  0  0  0  0  0  0  0  0  0  0
   -1.4196   -0.6414    1.7616 C   0  0  0  0  0  0  0  0  0  0  0  0
   -6.9556   -0.9707   -1.7985 C   0  0  0  0  0  0  0  0  0  0  0  0
   -0.0057   -0.3792    1.9675 C   0  0  0  0  0  0  0  0  0  0  0  0
   -2.0555   -1.6844    2.4337 C   0  0  0  0  0  0  0  0  0  0  0  0
    6.6763   -1.2540    0.4784 C   0  0  0  0  0  0  0  0  0  0  0  0
    4.9561   -2.4542   -0.7207 C   0  0  0  0  0  0  0  0  0  0  0  0
    4.5534    4.2216    0.2171 C   0  0  0  0  0  0  0  0  0  0  0  0
   -8.1021   -0.9028   -2.5869 C   0  0  0  0  0  0  0  0  0  0  0  0
   -9.1518   -0.0839   -2.1706 C   0  0  0  0  0  0  0  0  0  0  0  0
    5.8586   -3.4847   -0.9840 C   0  0  0  0  0  0  0  0  0  0  0  0
    7.5789   -2.2844    0.2150 C   0  0  0  0  0  0  0  0  0  0  0  0
    7.1700   -3.3998   -0.5161 C   0  0  0  0  0  0  0  0  0  0  0  0
    4.6767    0.2014    1.2733 H   0  0  0  0  0  0  0  0  0  0  0  0
    5.4812    1.3296   -0.7152 H   0  0  0  0  0  0  0  0  0  0  0  0
   -4.4741    1.5927   -0.0596 H   0  0  0  0  0  0  0  0  0  0  0  0
   -4.3328    0.2136   -1.1883 H   0  0  0  0  0  0  0  0  0  0  0  0
   -5.6108   -2.2813    0.4694 H   0  0  0  0  0  0  0  0  0  0  0  0
   -6.0923   -1.5608    2.0328 H   0  0  0  0  0  0  0  0  0  0  0  0
    2.4770   -0.9801   -0.4843 H   0  0  0  0  0  0  0  0  0  0  0  0
    2.8347   -1.4798    1.1615 H   0  0  0  0  0  0  0  0  0  0  0  0
    2.3726    0.7279    2.0042 H   0  0  0  0  0  0  0  0  0  0  0  0
    3.1334    0.1171   -2.2876 H   0  0  0  0  0  0  0  0  0  0  0  0
    4.8501   -0.2793   -2.5187 H   0  0  0  0  0  0  0  0  0  0  0  0
    4.2551    1.3338   -2.8695 H   0  0  0  0  0  0  0  0  0  0  0  0
    4.6054    3.2784   -1.7055 H   0  0  0  0  0  0  0  0  0  0  0  0
    3.0186    3.8721   -1.2254 H   0  0  0  0  0  0  0  0  0  0  0  0
    0.2110    0.4150    0.0390 H   0  0  0  0  0  0  0  0  0  0  0  0
   -8.4289    1.8597    1.3156 H   0  0  0  0  0  0  0  0  0  0  0  0
   -1.7495    0.9807    0.3415 H   0  0  0  0  0  0  0  0  0  0  0  0
   -6.1206   -1.5971   -2.0924 H   0  0  0  0  0  0  0  0  0  0  0  0
   -1.5148   -2.3267    3.1230 H   0  0  0  0  0  0  0  0  0  0  0  0
   -8.1775   -1.4745   -3.5055 H   0  0  0  0  0  0  0  0  0  0  0  0
  -10.0587   -0.0089   -2.7623 H   0  0  0  0  0  0  0  0  0  0  0  0
    8.5997   -2.2181    0.5794 H   0  0  0  0  0  0  0  0  0  0  0  0
    7.8724   -4.2023   -0.7212 H   0  0  0  0  0  0  0  0  0  0  0  0
  1 36  1  0  0  0  0
  2 37  1  0  0  0  0
  3 38  1  0  0  0  0
  4 38  1  0  0  0  0
  5 38  1  0  0  0  0
  6 41  1  0  0  0  0
  7 25  2  0  0  0  0
  8 26  2  0  0  0  0
  9 34  2  0  0  0  0
 10 17  1  0  0  0  0
 10 26  1  0  0  0  0
 10 30  1  0  0  0  0
 11 21  1  0  0  0  0
 11 34  1  0  0  0  0
 11 58  1  0  0  0  0
 12 25  1  0  0  0  0
 12 29  1  0  0  0  0
 12 59  1  0  0  0  0
 13 24  2  0  0  0  0
 13 35  1  0  0  0  0
 14 29  2  0  0  0  0
 14 40  1  0  0  0  0
 15 18  1  0  0  0  0
 15 19  1  0  0  0  0
 15 23  1  6  0  0  0
 15 25  1  0  0  0  0
 16 17  1  6  0  0  0
 16 20  1  0  0  0  0
 16 27  1  0  0  0  0
 16 44  1  0  0  0  0
 17 28  1  0  0  0  0
 17 45  1  1  0  0  0
 18 22  1  0  0  0  0
 18 46  1  0  0  0  0
 18 47  1  0  0  0  0
 19 24  1  0  0  0  0
 19 48  1  0  0  0  0
 19 49  1  0  0  0  0
 20 21  1  0  0  0  0
 20 50  1  0  0  0  0
 20 51  1  0  0  0  0
 21 26  1  0  0  0  0
 21 52  1  1  0  0  0
 22 24  1  0  0  0  0
 22 31  2  0  0  0  0
 23 29  1  0  0  0  0
 23 33  2  0  0  0  0
 27 36  2  0  0  0  0
 27 37  1  0  0  0  0
 28 53  1  0  0  0  0
 28 54  1  0  0  0  0
 28 55  1  0  0  0  0
 30 38  1  0  0  0  0
 30 56  1  0  0  0  0
 30 57  1  0  0  0  0
 31 32  1  0  0  0  0
 31 60  1  0  0  0  0
 32 34  1  0  0  0  0
 32 35  2  0  0  0  0
 33 39  1  0  0  0  0
 33 61  1  0  0  0  0
 35 62  1  0  0  0  0
 36 42  1  0  0  0  0
 37 41  2  0  0  0  0
 39 40  2  0  0  0  0
 39 63  1  0  0  0  0
 40 64  1  0  0  0  0
 41 43  1  0  0  0  0
 42 43  2  0  0  0  0
 42 65  1  0  0  0  0
 43 66  1  0  0  0  0
M  END
